@<TRIPOS>MOLECULE

  35   35
SMALL
USER_CHARGES
@<TRIPOS>ATOM
   1 C1           3.8030     2.8756     2.8050 C.3          1    LIG   0.0000
   2 C2           2.9849     2.3468     1.6381 C.3          1    LIG   0.0000
   3 C3           1.8181     1.5288     2.1669 C.3          1    LIG   0.0000
   4 C4           1.0000     1.0000     1.0000 C.3          1    LIG   0.0000
   5 C5           0.4712     2.1669     0.1819 C.3          1    LIG   0.0000
   6 O6          -0.0901     0.2358     1.4940 O.3          1    LIG   0.0000
   7 C7           1.8775     0.1225     0.1225 C.ar         1    LIG   0.0000
   8 C8           2.5847     0.6931    -0.9299 C.ar         1    LIG   0.0000
   9 C9           3.3910    -0.1015    -1.7379 C.ar         1    LIG   0.0000
  10 C10          3.4766    -1.4656    -1.4791 C.ar         1    LIG   0.0000
  11 S11          4.4831    -2.4659    -2.4861 S.3          1    LIG   0.0000
  12 C12          4.2594    -4.1088    -1.7601 C.3          1    LIG   0.0000
  13 C13          5.0858    -5.1220    -2.5352 C.3          1    LIG   0.0000
  14 C14          2.7729    -2.0450    -0.4284 C.ar         1    LIG   0.0000
  15 C15          1.9690    -1.2422     0.3742 C.ar         1    LIG   0.0000
  16 H            4.5707     3.4138     2.4571 H            1    LIG   0.0000
  17 H            3.2256     3.4529     3.3823 H            1    LIG   0.0000
  18 H            4.1509     2.1079     3.3432 H            1    LIG   0.0000
  19 H            2.6371     3.1145     1.0999 H            1    LIG   0.0000
  20 H            3.5623     1.7695     1.0608 H            1    LIG   0.0000
  21 H            2.1659     0.7611     2.7051 H            1    LIG   0.0000
  22 H            1.2407     2.1061     2.7442 H            1    LIG   0.0000
  23 H            1.2389     2.7051    -0.1659 H            1    LIG   0.0000
  24 H           -0.0670     1.8190    -0.5857 H            1    LIG   0.0000
  25 H           -0.1061     2.7442     0.7593 H            1    LIG   0.0000
  26 H           -0.6675     0.8131     2.0713 H            1    LIG   0.0000
  27 H            2.5135     1.6749    -1.1059 H            1    LIG   0.0000
  28 H            3.9030     0.3030    -2.4958 H            1    LIG   0.0000
  29 H            3.2934    -4.3636    -1.8032 H            1    LIG   0.0000
  30 H            4.5582    -4.0950    -0.8059 H            1    LIG   0.0000
  31 H            4.9622    -6.0297    -2.1340 H            1    LIG   0.0000
  32 H            4.7870    -5.1358    -3.4894 H            1    LIG   0.0000
  33 H            6.0518    -4.8672    -2.4920 H            1    LIG   0.0000
  34 H            2.8442    -3.0267    -0.2522 H            1    LIG   0.0000
  35 H            1.4569    -1.6463     1.1321 H            1    LIG   0.0000
@<TRIPOS>BOND
   1        1        2 1
   2        2        3 1
   3        3        4 1
   4        4        5 1
   5        4        6 1
   6        4        7 1
   7        7        8 ar
   8        8        9 ar
   9        9       10 ar
  10       10       11 1
  11       11       12 1
  12       12       13 1
  13       10       14 ar
  14       14       15 ar
  15       15        7 ar
  16        1       16 1
  17        1       17 1
  18        1       18 1
  19        2       19 1
  20        2       20 1
  21        3       21 1
  22        3       22 1
  23        5       23 1
  24        5       24 1
  25        5       25 1
  26        6       26 1
  27        8       27 1
  28        9       28 1
  29       12       29 1
  30       12       30 1
  31       13       31 1
  32       13       32 1
  33       13       33 1
  34       14       34 1
  35       15       35 1

@<TRIPOS>MOLECULE

  35   35
SMALL
USER_CHARGES
@<TRIPOS>ATOM
   1 C1           3.8030     2.8756     2.8050 C.3          1    LIG   0.0000
   2 C2           2.9849     2.3468     1.6381 C.3          1    LIG   0.0000
   3 C3           1.8181     1.5288     2.1669 C.3          1    LIG   0.0000
   4 C4           1.0000     1.0000     1.0000 C.3          1    LIG   0.0000
   5 C5           0.4712     2.1669     0.1819 C.3          1    LIG   0.0000
   6 O6          -0.0901     0.2358     1.4940 O.3          1    LIG   0.0000
   7 C7           1.8775     0.1225     0.1225 C.ar         1    LIG   0.0000
   8 C8           2.5847     0.6931    -0.9299 C.ar         1    LIG   0.0000
   9 C9           3.3910    -0.1015    -1.7379 C.ar         1    LIG   0.0000
  10 C10          3.4766    -1.4656    -1.4791 C.ar         1    LIG   0.0000
  11 S11          4.4831    -2.4659    -2.4861 S.3          1    LIG   0.0000
  12 C12          5.1635    -1.2771    -3.6692 C.3          1    LIG   0.0000
  13 C13          6.0830    -1.9988    -4.6409 C.3          1    LIG   0.0000
  14 C14          2.7729    -2.0450    -0.4284 C.ar         1    LIG   0.0000
  15 C15          1.9690    -1.2422     0.3742 C.ar         1    LIG   0.0000
  16 H            4.5707     3.4138     2.4571 H            1    LIG   0.0000
  17 H            3.2256     3.4529     3.3823 H            1    LIG   0.0000
  18 H            4.1509     2.1079     3.3432 H            1    LIG   0.0000
  19 H            2.6371     3.1145     1.0999 H            1    LIG   0.0000
  20 H            3.5623     1.7695     1.0608 H            1    LIG   0.0000
  21 H            2.1659     0.7611     2.7051 H            1    LIG   0.0000
  22 H            1.2407     2.1061     2.7442 H            1    LIG   0.0000
  23 H            1.2389     2.7051    -0.1659 H            1    LIG   0.0000
  24 H           -0.0670     1.8190    -0.5857 H            1    LIG   0.0000
  25 H           -0.1061     2.7442     0.7593 H            1    LIG   0.0000
  26 H           -0.6675     0.8131     2.0713 H            1    LIG   0.0000
  27 H            2.5135     1.6749    -1.1059 H            1    LIG   0.0000
  28 H            3.9030     0.3030    -2.4958 H            1    LIG   0.0000
  29 H            5.6815    -0.5769    -3.1778 H            1    LIG   0.0000
  30 H            4.4166    -0.8455    -4.1751 H            1    LIG   0.0000
  31 H            6.4589    -1.3420    -5.2945 H            1    LIG   0.0000
  32 H            6.8299    -2.4304    -4.1350 H            1    LIG   0.0000
  33 H            5.5650    -2.6990    -5.1323 H            1    LIG   0.0000
  34 H            2.8442    -3.0267    -0.2522 H            1    LIG   0.0000
  35 H            1.4569    -1.6463     1.1321 H            1    LIG   0.0000
@<TRIPOS>BOND
   1        1        2 1
   2        2        3 1
   3        3        4 1
   4        4        5 1
   5        4        6 1
   6        4        7 1
   7        7        8 ar
   8        8        9 ar
   9        9       10 ar
  10       10       11 1
  11       11       12 1
  12       12       13 1
  13       10       14 ar
  14       14       15 ar
  15       15        7 ar
  16        1       16 1
  17        1       17 1
  18        1       18 1
  19        2       19 1
  20        2       20 1
  21        3       21 1
  22        3       22 1
  23        5       23 1
  24        5       24 1
  25        5       25 1
  26        6       26 1
  27        8       27 1
  28        9       28 1
  29       12       29 1
  30       12       30 1
  31       13       31 1
  32       13       32 1
  33       13       33 1
  34       14       34 1
  35       15       35 1

@<TRIPOS>MOLECULE

  35   35
SMALL
USER_CHARGES
@<TRIPOS>ATOM
   1 C1           3.8030     2.8756     2.8050 C.3          1    LIG   0.0000
   2 C2           2.9849     2.3468     1.6381 C.3          1    LIG   0.0000
   3 C3           1.8181     1.5288     2.1669 C.3          1    LIG   0.0000
   4 C4           1.0000     1.0000     1.0000 C.3          1    LIG   0.0000
   5 C5           0.4712     2.1669     0.1819 C.3          1    LIG   0.0000
   6 O6          -0.0901     0.2358     1.4940 O.3          1    LIG   0.0000
   7 C7           1.8775     0.1225     0.1225 C.ar         1    LIG   0.0000
   8 C8           2.5847     0.6931    -0.9299 C.ar         1    LIG   0.0000
   9 C9           3.3910    -0.1015    -1.7379 C.ar         1    LIG   0.0000
  10 C10          3.4766    -1.4656    -1.4791 C.ar         1    LIG   0.0000
  11 S11          4.4831    -2.4659    -2.4861 S.3          1    LIG   0.0000
  12 C12          3.3433    -2.9834    -3.7935 C.3          1    LIG   0.0000
  13 C13          4.0754    -3.8809    -4.7779 C.3          1    LIG   0.0000
  14 C14          2.7729    -2.0450    -0.4284 C.ar         1    LIG   0.0000
  15 C15          1.9690    -1.2422     0.3742 C.ar         1    LIG   0.0000
  16 H            4.5707     3.4138     2.4571 H            1    LIG   0.0000
  17 H            3.2256     3.4529     3.3823 H            1    LIG   0.0000
  18 H            4.1509     2.1079     3.3432 H            1    LIG   0.0000
  19 H            2.6371     3.1145     1.0999 H            1    LIG   0.0000
  20 H            3.5623     1.7695     1.0608 H            1    LIG   0.0000
  21 H            2.1659     0.7611     2.7051 H            1    LIG   0.0000
  22 H            1.2407     2.1061     2.7442 H            1    LIG   0.0000
  23 H            1.2389     2.7051    -0.1659 H            1    LIG   0.0000
  24 H           -0.0670     1.8190    -0.5857 H            1    LIG   0.0000
  25 H           -0.1061     2.7442     0.7593 H            1    LIG   0.0000
  26 H           -0.6675     0.8131     2.0713 H            1    LIG   0.0000
  27 H            2.5135     1.6749    -1.1059 H            1    LIG   0.0000
  28 H            3.9030     0.3030    -2.4958 H            1    LIG   0.0000
  29 H            2.9966    -2.1767    -4.2721 H            1    LIG   0.0000
  30 H            2.5787    -3.4857    -3.3896 H            1    LIG   0.0000
  31 H            3.4456    -4.1668    -5.5002 H            1    LIG   0.0000
  32 H            4.8400    -3.3787    -5.1818 H            1    LIG   0.0000
  33 H            4.4221    -4.6876    -4.2994 H            1    LIG   0.0000
  34 H            2.8442    -3.0267    -0.2522 H            1    LIG   0.0000
  35 H            1.4569    -1.6463     1.1321 H            1    LIG   0.0000
@<TRIPOS>BOND
   1        1        2 1
   2        2        3 1
   3        3        4 1
   4        4        5 1
   5        4        6 1
   6        4        7 1
   7        7        8 ar
   8        8        9 ar
   9        9       10 ar
  10       10       11 1
  11       11       12 1
  12       12       13 1
  13       10       14 ar
  14       14       15 ar
  15       15        7 ar
  16        1       16 1
  17        1       17 1
  18        1       18 1
  19        2       19 1
  20        2       20 1
  21        3       21 1
  22        3       22 1
  23        5       23 1
  24        5       24 1
  25        5       25 1
  26        6       26 1
  27        8       27 1
  28        9       28 1
  29       12       29 1
  30       12       30 1
  31       13       31 1
  32       13       32 1
  33       13       33 1
  34       14       34 1
  35       15       35 1

@<TRIPOS>MOLECULE

  35   35
SMALL
USER_CHARGES
@<TRIPOS>ATOM
   1 C1           3.8030     2.8756     2.8050 C.3          1    LIG   0.0000
   2 C2           2.9849     2.3468     1.6381 C.3          1    LIG   0.0000
   3 C3           1.8181     1.5288     2.1669 C.3          1    LIG   0.0000
   4 C4           1.0000     1.0000     1.0000 C.3          1    LIG   0.0000
   5 C5           0.4712     2.1669     0.1819 C.3          1    LIG   0.0000
   6 O6          -0.0901     0.2358     1.4940 O.3          1    LIG   0.0000
   7 C7           1.8775     0.1225     0.1225 C.ar         1    LIG   0.0000
   8 C8           2.5847     0.6931    -0.9299 C.ar         1    LIG   0.0000
   9 C9           3.3910    -0.1015    -1.7379 C.ar         1    LIG   0.0000
  10 C10          3.4766    -1.4656    -1.4791 C.ar         1    LIG   0.0000
  11 S11          4.4831    -2.4659    -2.4861 S.3          1    LIG   0.0000
  12 C12          6.0797    -2.4024    -1.6358 C.3          1    LIG   0.0000
  13 C13          7.0934    -3.2400    -2.3981 C.3          1    LIG   0.0000
  14 C14          2.7729    -2.0450    -0.4284 C.ar         1    LIG   0.0000
  15 C15          1.9690    -1.2422     0.3742 C.ar         1    LIG   0.0000
  16 H            4.5707     3.4138     2.4571 H            1    LIG   0.0000
  17 H            3.2256     3.4529     3.3823 H            1    LIG   0.0000
  18 H            4.1509     2.1079     3.3432 H            1    LIG   0.0000
  19 H            2.6371     3.1145     1.0999 H            1    LIG   0.0000
  20 H            3.5623     1.7695     1.0608 H            1    LIG   0.0000
  21 H            2.1659     0.7611     2.7051 H            1    LIG   0.0000
  22 H            1.2407     2.1061     2.7442 H            1    LIG   0.0000
  23 H            1.2389     2.7051    -0.1659 H            1    LIG   0.0000
  24 H           -0.0670     1.8190    -0.5857 H            1    LIG   0.0000
  25 H           -0.1061     2.7442     0.7593 H            1    LIG   0.0000
  26 H           -0.6675     0.8131     2.0713 H            1    LIG   0.0000
  27 H            2.5135     1.6749    -1.1059 H            1    LIG   0.0000
  28 H            3.9030     0.3030    -2.4958 H            1    LIG   0.0000
  29 H            5.9783    -2.7637    -0.7089 H            1    LIG   0.0000
  30 H            6.3962    -1.4548    -1.5914 H            1    LIG   0.0000
  31 H            7.9755    -3.2049    -1.9283 H            1    LIG   0.0000
  32 H            6.7769    -4.1875    -2.4425 H            1    LIG   0.0000
  33 H            7.1948    -2.8786    -3.3250 H            1    LIG   0.0000
  34 H            2.8442    -3.0267    -0.2522 H            1    LIG   0.0000
  35 H            1.4569    -1.6463     1.1321 H            1    LIG   0.0000
@<TRIPOS>BOND
   1        1        2 1
   2        2        3 1
   3        3        4 1
   4        4        5 1
   5        4        6 1
   6        4        7 1
   7        7        8 ar
   8        8        9 ar
   9        9       10 ar
  10       10       11 1
  11       11       12 1
  12       12       13 1
  13       10       14 ar
  14       14       15 ar
  15       15        7 ar
  16        1       16 1
  17        1       17 1
  18        1       18 1
  19        2       19 1
  20        2       20 1
  21        3       21 1
  22        3       22 1
  23        5       23 1
  24        5       24 1
  25        5       25 1
  26        6       26 1
  27        8       27 1
  28        9       28 1
  29       12       29 1
  30       12       30 1
  31       13       31 1
  32       13       32 1
  33       13       33 1
  34       14       34 1
  35       15       35 1

@<TRIPOS>MOLECULE

  35   35
SMALL
USER_CHARGES
@<TRIPOS>ATOM
   1 C1           3.8030     2.8756     2.8050 C.3          1    LIG   0.0000
   2 C2           2.9849     2.3468     1.6381 C.3          1    LIG   0.0000
   3 C3           1.8181     1.5288     2.1669 C.3          1    LIG   0.0000
   4 C4           1.0000     1.0000     1.0000 C.3          1    LIG   0.0000
   5 C5           0.4712     2.1669     0.1819 C.3          1    LIG   0.0000
   6 O6          -0.0901     0.2358     1.4940 O.3          1    LIG   0.0000
   7 C7           1.8775     0.1225     0.1225 C.ar         1    LIG   0.0000
   8 C8           2.4732    -1.0115     0.6632 C.ar         1    LIG   0.0000
   9 C9           3.2771    -1.8213    -0.1320 C.ar         1    LIG   0.0000
  10 C10          3.4752    -1.4801    -1.4660 C.ar         1    LIG   0.0000
  11 S11          4.4801    -2.4883    -2.4667 S.3          1    LIG   0.0000
  12 C12          4.4211    -1.6417    -4.0654 C.3          1    LIG   0.0000
  13 C13          5.2631    -2.4054    -5.0745 C.3          1    LIG   0.0000
  14 C14          2.8832    -0.3477    -2.0154 C.ar         1    LIG   0.0000
  15 C15          2.0808     0.4561    -1.2122 C.ar         1    LIG   0.0000
  16 H            4.5707     3.4138     2.4571 H            1    LIG   0.0000
  17 H            3.2256     3.4529     3.3823 H            1    LIG   0.0000
  18 H            4.1509     2.1079     3.3432 H            1    LIG   0.0000
  19 H            2.6371     3.1145     1.0999 H            1    LIG   0.0000
  20 H            3.5623     1.7695     1.0608 H            1    LIG   0.0000
  21 H            2.1659     0.7611     2.7051 H            1    LIG   0.0000
  22 H            1.2407     2.1061     2.7442 H            1    LIG   0.0000
  23 H            1.2389     2.7051    -0.1659 H            1    LIG   0.0000
  24 H           -0.0670     1.8190    -0.5857 H            1    LIG   0.0000
  25 H           -0.1061     2.7442     0.7593 H            1    LIG   0.0000
  26 H           -0.6675     0.8131     2.0713 H            1    LIG   0.0000
  27 H            2.3235    -1.2450     1.6240 H            1    LIG   0.0000
  28 H            3.7075    -2.6389     0.2506 H            1    LIG   0.0000
  29 H            4.7811    -0.7142    -3.9649 H            1    LIG   0.0000
  30 H            3.4746    -1.5991    -4.3853 H            1    LIG   0.0000
  31 H            5.2305    -1.9376    -5.9578 H            1    LIG   0.0000
  32 H            6.2096    -2.4480    -4.7547 H            1    LIG   0.0000
  33 H            4.9031    -3.3329    -5.1750 H            1    LIG   0.0000
  34 H            3.0326    -0.1142    -2.9763 H            1    LIG   0.0000
  35 H            1.6503     1.2737    -1.5945 H            1    LIG   0.0000
@<TRIPOS>BOND
   1        1        2 1
   2        2        3 1
   3        3        4 1
   4        4        5 1
   5        4        6 1
   6        4        7 1
   7        7        8 ar
   8        8        9 ar
   9        9       10 ar
  10       10       11 1
  11       11       12 1
  12       12       13 1
  13       10       14 ar
  14       14       15 ar
  15       15        7 ar
  16        1       16 1
  17        1       17 1
  18        1       18 1
  19        2       19 1
  20        2       20 1
  21        3       21 1
  22        3       22 1
  23        5       23 1
  24        5       24 1
  25        5       25 1
  26        6       26 1
  27        8       27 1
  28        9       28 1
  29       12       29 1
  30       12       30 1
  31       13       31 1
  32       13       32 1
  33       13       33 1
  34       14       34 1
  35       15       35 1

@<TRIPOS>MOLECULE

  35   35
SMALL
USER_CHARGES
@<TRIPOS>ATOM
   1 C1           3.8030     2.8756     2.8050 C.3          1    LIG   0.0000
   2 C2           2.9849     2.3468     1.6381 C.3          1    LIG   0.0000
   3 C3           1.8181     1.5288     2.1669 C.3          1    LIG   0.0000
   4 C4           1.0000     1.0000     1.0000 C.3          1    LIG   0.0000
   5 C5           0.4712     2.1669     0.1819 C.3          1    LIG   0.0000
   6 O6          -0.0901     0.2358     1.4940 O.3          1    LIG   0.0000
   7 C7           1.8775     0.1225     0.1225 C.ar         1    LIG   0.0000
   8 C8           2.4732    -1.0115     0.6632 C.ar         1    LIG   0.0000
   9 C9           3.2771    -1.8213    -0.1320 C.ar         1    LIG   0.0000
  10 C10          3.4752    -1.4801    -1.4660 C.ar         1    LIG   0.0000
  11 S11          4.4801    -2.4883    -2.4667 S.3          1    LIG   0.0000
  12 C12          4.9952    -3.7924    -1.3222 C.3          1    LIG   0.0000
  13 C13          5.8963    -4.7775    -2.0488 C.3          1    LIG   0.0000
  14 C14          2.8832    -0.3477    -2.0154 C.ar         1    LIG   0.0000
  15 C15          2.0808     0.4561    -1.2122 C.ar         1    LIG   0.0000
  16 H            4.5707     3.4138     2.4571 H            1    LIG   0.0000
  17 H            3.2256     3.4529     3.3823 H            1    LIG   0.0000
  18 H            4.1509     2.1079     3.3432 H            1    LIG   0.0000
  19 H            2.6371     3.1145     1.0999 H            1    LIG   0.0000
  20 H            3.5623     1.7695     1.0608 H            1    LIG   0.0000
  21 H            2.1659     0.7611     2.7051 H            1    LIG   0.0000
  22 H            1.2407     2.1061     2.7442 H            1    LIG   0.0000
  23 H            1.2389     2.7051    -0.1659 H            1    LIG   0.0000
  24 H           -0.0670     1.8190    -0.5857 H            1    LIG   0.0000
  25 H           -0.1061     2.7442     0.7593 H            1    LIG   0.0000
  26 H           -0.6675     0.8131     2.0713 H            1    LIG   0.0000
  27 H            2.3235    -1.2450     1.6240 H            1    LIG   0.0000
  28 H            3.7075    -2.6389     0.2506 H            1    LIG   0.0000
  29 H            4.1879    -4.2711    -0.9771 H            1    LIG   0.0000
  30 H            5.4943    -3.3862    -0.5567 H            1    LIG   0.0000
  31 H            6.1809    -5.4980    -1.4165 H            1    LIG   0.0000
  32 H            5.3972    -5.1838    -2.8142 H            1    LIG   0.0000
  33 H            6.7037    -4.2988    -2.3939 H            1    LIG   0.0000
  34 H            3.0326    -0.1142    -2.9763 H            1    LIG   0.0000
  35 H            1.6503     1.2737    -1.5945 H            1    LIG   0.0000
@<TRIPOS>BOND
   1        1        2 1
   2        2        3 1
   3        3        4 1
   4        4        5 1
   5        4        6 1
   6        4        7 1
   7        7        8 ar
   8        8        9 ar
   9        9       10 ar
  10       10       11 1
  11       11       12 1
  12       12       13 1
  13       10       14 ar
  14       14       15 ar
  15       15        7 ar
  16        1       16 1
  17        1       17 1
  18        1       18 1
  19        2       19 1
  20        2       20 1
  21        3       21 1
  22        3       22 1
  23        5       23 1
  24        5       24 1
  25        5       25 1
  26        6       26 1
  27        8       27 1
  28        9       28 1
  29       12       29 1
  30       12       30 1
  31       13       31 1
  32       13       32 1
  33       13       33 1
  34       14       34 1
  35       15       35 1

@<TRIPOS>MOLECULE

  35   35
SMALL
USER_CHARGES
@<TRIPOS>ATOM
   1 C1           3.8030     2.8756     2.8050 C.3          1    LIG   0.0000
   2 C2           2.9849     2.3468     1.6381 C.3          1    LIG   0.0000
   3 C3           1.8181     1.5288     2.1669 C.3          1    LIG   0.0000
   4 C4           1.0000     1.0000     1.0000 C.3          1    LIG   0.0000
   5 C5           0.4712     2.1669     0.1819 C.3          1    LIG   0.0000
   6 O6          -0.0901     0.2358     1.4940 O.3          1    LIG   0.0000
   7 C7           1.8775     0.1225     0.1225 C.ar         1    LIG   0.0000
   8 C8           2.4732    -1.0115     0.6632 C.ar         1    LIG   0.0000
   9 C9           3.2771    -1.8213    -0.1320 C.ar         1    LIG   0.0000
  10 C10          3.4752    -1.4801    -1.4660 C.ar         1    LIG   0.0000
  11 S11          4.4801    -2.4883    -2.4667 S.3          1    LIG   0.0000
  12 C12          6.1214    -1.7598    -2.2391 C.3          1    LIG   0.0000
  13 C13          7.1384    -2.5356    -3.0602 C.3          1    LIG   0.0000
  14 C14          2.8832    -0.3477    -2.0154 C.ar         1    LIG   0.0000
  15 C15          2.0808     0.4561    -1.2122 C.ar         1    LIG   0.0000
  16 H            4.5707     3.4138     2.4571 H            1    LIG   0.0000
  17 H            3.2256     3.4529     3.3823 H            1    LIG   0.0000
  18 H            4.1509     2.1079     3.3432 H            1    LIG   0.0000
  19 H            2.6371     3.1145     1.0999 H            1    LIG   0.0000
  20 H            3.5623     1.7695     1.0608 H            1    LIG   0.0000
  21 H            2.1659     0.7611     2.7051 H            1    LIG   0.0000
  22 H            1.2407     2.1061     2.7442 H            1    LIG   0.0000
  23 H            1.2389     2.7051    -0.1659 H            1    LIG   0.0000
  24 H           -0.0670     1.8190    -0.5857 H            1    LIG   0.0000
  25 H           -0.1061     2.7442     0.7593 H            1    LIG   0.0000
  26 H           -0.6675     0.8131     2.0713 H            1    LIG   0.0000
  27 H            2.3235    -1.2450     1.6240 H            1    LIG   0.0000
  28 H            3.7075    -2.6389     0.2506 H            1    LIG   0.0000
  29 H            6.3729    -1.8004    -1.2721 H            1    LIG   0.0000
  30 H            6.1075    -0.8063    -2.5401 H            1    LIG   0.0000
  31 H            8.0451    -2.1332    -2.9344 H            1    LIG   0.0000
  32 H            7.1522    -3.4891    -2.7591 H            1    LIG   0.0000
  33 H            6.8869    -2.4950    -4.0272 H            1    LIG   0.0000
  34 H            3.0326    -0.1142    -2.9763 H            1    LIG   0.0000
  35 H            1.6503     1.2737    -1.5945 H            1    LIG   0.0000
@<TRIPOS>BOND
   1        1        2 1
   2        2        3 1
   3        3        4 1
   4        4        5 1
   5        4        6 1
   6        4        7 1
   7        7        8 ar
   8        8        9 ar
   9        9       10 ar
  10       10       11 1
  11       11       12 1
  12       12       13 1
  13       10       14 ar
  14       14       15 ar
  15       15        7 ar
  16        1       16 1
  17        1       17 1
  18        1       18 1
  19        2       19 1
  20        2       20 1
  21        3       21 1
  22        3       22 1
  23        5       23 1
  24        5       24 1
  25        5       25 1
  26        6       26 1
  27        8       27 1
  28        9       28 1
  29       12       29 1
  30       12       30 1
  31       13       31 1
  32       13       32 1
  33       13       33 1
  34       14       34 1
  35       15       35 1

@<TRIPOS>MOLECULE

  35   35
SMALL
USER_CHARGES
@<TRIPOS>ATOM
   1 C1           3.8030     2.8756     2.8050 C.3          1    LIG   0.0000
   2 C2           2.9849     2.3468     1.6381 C.3          1    LIG   0.0000
   3 C3           1.8181     1.5288     2.1669 C.3          1    LIG   0.0000
   4 C4           1.0000     1.0000     1.0000 C.3          1    LIG   0.0000
   5 C5           0.4712     2.1669     0.1819 C.3          1    LIG   0.0000
   6 O6          -0.0901     0.2358     1.4940 O.3          1    LIG   0.0000
   7 C7           1.8775     0.1225     0.1225 C.ar         1    LIG   0.0000
   8 C8           2.4732    -1.0115     0.6632 C.ar         1    LIG   0.0000
   9 C9           3.2771    -1.8213    -0.1320 C.ar         1    LIG   0.0000
  10 C10          3.4752    -1.4801    -1.4660 C.ar         1    LIG   0.0000
  11 S11          4.4801    -2.4883    -2.4667 S.3          1    LIG   0.0000
  12 C12          3.2950    -3.6743    -3.1485 C.3          1    LIG   0.0000
  13 C13          4.0210    -4.6472    -4.0632 C.3          1    LIG   0.0000
  14 C14          2.8832    -0.3477    -2.0154 C.ar         1    LIG   0.0000
  15 C15          2.0808     0.4561    -1.2122 C.ar         1    LIG   0.0000
  16 H            4.5707     3.4138     2.4571 H            1    LIG   0.0000
  17 H            3.2256     3.4529     3.3823 H            1    LIG   0.0000
  18 H            4.1509     2.1079     3.3432 H            1    LIG   0.0000
  19 H            2.6371     3.1145     1.0999 H            1    LIG   0.0000
  20 H            3.5623     1.7695     1.0608 H            1    LIG   0.0000
  21 H            2.1659     0.7611     2.7051 H            1    LIG   0.0000
  22 H            1.2407     2.1061     2.7442 H            1    LIG   0.0000
  23 H            1.2389     2.7051    -0.1659 H            1    LIG   0.0000
  24 H           -0.0670     1.8190    -0.5857 H            1    LIG   0.0000
  25 H           -0.1061     2.7442     0.7593 H            1    LIG   0.0000
  26 H           -0.6675     0.8131     2.0713 H            1    LIG   0.0000
  27 H            2.3235    -1.2450     1.6240 H            1    LIG   0.0000
  28 H            3.7075    -2.6389     0.2506 H            1    LIG   0.0000
  29 H            2.5961    -3.1848    -3.6700 H            1    LIG   0.0000
  30 H            2.8615    -4.1790    -2.4019 H            1    LIG   0.0000
  31 H            3.3663    -5.3025    -4.4399 H            1    LIG   0.0000
  32 H            4.4546    -4.1426    -4.8098 H            1    LIG   0.0000
  33 H            4.7199    -5.1367    -3.5417 H            1    LIG   0.0000
  34 H            3.0326    -0.1142    -2.9763 H            1    LIG   0.0000
  35 H            1.6503     1.2737    -1.5945 H            1    LIG   0.0000
@<TRIPOS>BOND
   1        1        2 1
   2        2        3 1
   3        3        4 1
   4        4        5 1
   5        4        6 1
   6        4        7 1
   7        7        8 ar
   8        8        9 ar
   9        9       10 ar
  10       10       11 1
  11       11       12 1
  12       12       13 1
  13       10       14 ar
  14       14       15 ar
  15       15        7 ar
  16        1       16 1
  17        1       17 1
  18        1       18 1
  19        2       19 1
  20        2       20 1
  21        3       21 1
  22        3       22 1
  23        5       23 1
  24        5       24 1
  25        5       25 1
  26        6       26 1
  27        8       27 1
  28        9       28 1
  29       12       29 1
  30       12       30 1
  31       13       31 1
  32       13       32 1
  33       13       33 1
  34       14       34 1
  35       15       35 1

@<TRIPOS>MOLECULE

  35   35
SMALL
USER_CHARGES
@<TRIPOS>ATOM
   1 C1           3.8030     2.8756     2.8050 C.3          1    LIG   0.0000
   2 C2           2.9849     2.3468     1.6381 C.3          1    LIG   0.0000
   3 C3           1.8181     1.5288     2.1669 C.3          1    LIG   0.0000
   4 C4           1.0000     1.0000     1.0000 C.3          1    LIG   0.0000
   5 C5           0.4712     2.1669     0.1819 C.3          1    LIG   0.0000
   6 O6          -0.0901     0.2358     1.4940 O.3          1    LIG   0.0000
   7 C7           1.8775     0.1225     0.1225 C.ar         1    LIG   0.0000
   8 C8           2.9299    -0.5847     0.6931 C.ar         1    LIG   0.0000
   9 C9           3.7379    -1.3910    -0.1015 C.ar         1    LIG   0.0000
  10 C10          3.4791    -1.4766    -1.4656 C.ar         1    LIG   0.0000
  11 S11          4.4861    -2.4831    -2.4659 S.3          1    LIG   0.0000
  12 C12          3.7601    -2.2594    -4.1088 C.3          1    LIG   0.0000
  13 C13          2.3997    -2.9358    -4.1578 C.3          1    LIG   0.0000
  14 C14          2.4284    -0.7729    -2.0450 C.ar         1    LIG   0.0000
  15 C15          1.6258     0.0310    -1.2422 C.ar         1    LIG   0.0000
  16 H            4.5707     3.4138     2.4571 H            1    LIG   0.0000
  17 H            3.2256     3.4529     3.3823 H            1    LIG   0.0000
  18 H            4.1509     2.1079     3.3432 H            1    LIG   0.0000
  19 H            2.6371     3.1145     1.0999 H            1    LIG   0.0000
  20 H            3.5623     1.7695     1.0608 H            1    LIG   0.0000
  21 H            2.1659     0.7611     2.7051 H            1    LIG   0.0000
  22 H            1.2407     2.1061     2.7442 H            1    LIG   0.0000
  23 H            1.2389     2.7051    -0.1659 H            1    LIG   0.0000
  24 H           -0.0670     1.8190    -0.5857 H            1    LIG   0.0000
  25 H           -0.1061     2.7442     0.7593 H            1    LIG   0.0000
  26 H           -0.6675     0.8131     2.0713 H            1    LIG   0.0000
  27 H            3.1059    -0.5135     1.6749 H            1    LIG   0.0000
  28 H            4.4958    -1.9030     0.3030 H            1    LIG   0.0000
  29 H            4.3602    -2.6674    -4.7968 H            1    LIG   0.0000
  30 H            3.6537    -1.2829    -4.2961 H            1    LIG   0.0000
  31 H            1.9986    -2.8123    -5.0655 H            1    LIG   0.0000
  32 H            2.5061    -3.9124    -3.9705 H            1    LIG   0.0000
  33 H            1.7996    -2.5279    -3.4698 H            1    LIG   0.0000
  34 H            2.2522    -0.8442    -3.0267 H            1    LIG   0.0000
  35 H            0.8679     0.5431    -1.6463 H            1    LIG   0.0000
@<TRIPOS>BOND
   1        1        2 1
   2        2        3 1
   3        3        4 1
   4        4        5 1
   5        4        6 1
   6        4        7 1
   7        7        8 ar
   8        8        9 ar
   9        9       10 ar
  10       10       11 1
  11       11       12 1
  12       12       13 1
  13       10       14 ar
  14       14       15 ar
  15       15        7 ar
  16        1       16 1
  17        1       17 1
  18        1       18 1
  19        2       19 1
  20        2       20 1
  21        3       21 1
  22        3       22 1
  23        5       23 1
  24        5       24 1
  25        5       25 1
  26        6       26 1
  27        8       27 1
  28        9       28 1
  29       12       29 1
  30       12       30 1
  31       13       31 1
  32       13       32 1
  33       13       33 1
  34       14       34 1
  35       15       35 1

@<TRIPOS>MOLECULE

  35   35
SMALL
USER_CHARGES
@<TRIPOS>ATOM
   1 C1           3.8030     2.8756     2.8050 C.3          1    LIG   0.0000
   2 C2           2.9849     2.3468     1.6381 C.3          1    LIG   0.0000
   3 C3           1.8181     1.5288     2.1669 C.3          1    LIG   0.0000
   4 C4           1.0000     1.0000     1.0000 C.3          1    LIG   0.0000
   5 C5           0.4712     2.1669     0.1819 C.3          1    LIG   0.0000
   6 O6          -0.0901     0.2358     1.4940 O.3          1    LIG   0.0000
   7 C7           1.8775     0.1225     0.1225 C.ar         1    LIG   0.0000
   8 C8           2.9299    -0.5847     0.6931 C.ar         1    LIG   0.0000
   9 C9           3.7379    -1.3910    -0.1015 C.ar         1    LIG   0.0000
  10 C10          3.4791    -1.4766    -1.4656 C.ar         1    LIG   0.0000
  11 S11          4.4861    -2.4831    -2.4659 S.3          1    LIG   0.0000
  12 C12          3.7601    -2.2594    -4.1088 C.3          1    LIG   0.0000
  13 C13          4.0447    -0.8497    -4.6008 C.3          1    LIG   0.0000
  14 C14          2.4284    -0.7729    -2.0450 C.ar         1    LIG   0.0000
  15 C15          1.6258     0.0310    -1.2422 C.ar         1    LIG   0.0000
  16 H            4.5707     3.4138     2.4571 H            1    LIG   0.0000
  17 H            3.2256     3.4529     3.3823 H            1    LIG   0.0000
  18 H            4.1509     2.1079     3.3432 H            1    LIG   0.0000
  19 H            2.6371     3.1145     1.0999 H            1    LIG   0.0000
  20 H            3.5623     1.7695     1.0608 H            1    LIG   0.0000
  21 H            2.1659     0.7611     2.7051 H            1    LIG   0.0000
  22 H            1.2407     2.1061     2.7442 H            1    LIG   0.0000
  23 H            1.2389     2.7051    -0.1659 H            1    LIG   0.0000
  24 H           -0.0670     1.8190    -0.5857 H            1    LIG   0.0000
  25 H           -0.1061     2.7442     0.7593 H            1    LIG   0.0000
  26 H           -0.6675     0.8131     2.0713 H            1    LIG   0.0000
  27 H            3.1059    -0.5135     1.6749 H            1    LIG   0.0000
  28 H            4.4958    -1.9030     0.3030 H            1    LIG   0.0000
  29 H            2.7715    -2.4017    -4.0585 H            1    LIG   0.0000
  30 H            4.1602    -2.9210    -4.7429 H            1    LIG   0.0000
  31 H            3.6435    -0.7262    -5.5085 H            1    LIG   0.0000
  32 H            3.6445    -0.1882    -3.9667 H            1    LIG   0.0000
  33 H            5.0332    -0.7075    -4.6511 H            1    LIG   0.0000
  34 H            2.2522    -0.8442    -3.0267 H            1    LIG   0.0000
  35 H            0.8679     0.5431    -1.6463 H            1    LIG   0.0000
@<TRIPOS>BOND
   1        1        2 1
   2        2        3 1
   3        3        4 1
   4        4        5 1
   5        4        6 1
   6        4        7 1
   7        7        8 ar
   8        8        9 ar
   9        9       10 ar
  10       10       11 1
  11       11       12 1
  12       12       13 1
  13       10       14 ar
  14       14       15 ar
  15       15        7 ar
  16        1       16 1
  17        1       17 1
  18        1       18 1
  19        2       19 1
  20        2       20 1
  21        3       21 1
  22        3       22 1
  23        5       23 1
  24        5       24 1
  25        5       25 1
  26        6       26 1
  27        8       27 1
  28        9       28 1
  29       12       29 1
  30       12       30 1
  31       13       31 1
  32       13       32 1
  33       13       33 1
  34       14       34 1
  35       15       35 1

@<TRIPOS>MOLECULE

  35   35
SMALL
USER_CHARGES
@<TRIPOS>ATOM
   1 C1           3.8030     2.8756     2.8050 C.3          1    LIG   0.0000
   2 C2           2.9849     2.3468     1.6381 C.3          1    LIG   0.0000
   3 C3           1.8181     1.5288     2.1669 C.3          1    LIG   0.0000
   4 C4           1.0000     1.0000     1.0000 C.3          1    LIG   0.0000
   5 C5           0.4712     2.1669     0.1819 C.3          1    LIG   0.0000
   6 O6          -0.0901     0.2358     1.4940 O.3          1    LIG   0.0000
   7 C7           1.8775     0.1225     0.1225 C.ar         1    LIG   0.0000
   8 C8           2.9299    -0.5847     0.6931 C.ar         1    LIG   0.0000
   9 C9           3.7379    -1.3910    -0.1015 C.ar         1    LIG   0.0000
  10 C10          3.4791    -1.4766    -1.4656 C.ar         1    LIG   0.0000
  11 S11          4.4861    -2.4831    -2.4659 S.3          1    LIG   0.0000
  12 C12          5.6692    -3.1635    -1.2771 C.3          1    LIG   0.0000
  13 C13          6.6038    -2.0616    -0.8051 C.3          1    LIG   0.0000
  14 C14          2.4284    -0.7729    -2.0450 C.ar         1    LIG   0.0000
  15 C15          1.6258     0.0310    -1.2422 C.ar         1    LIG   0.0000
  16 H            4.5707     3.4138     2.4571 H            1    LIG   0.0000
  17 H            3.2256     3.4529     3.3823 H            1    LIG   0.0000
  18 H            4.1509     2.1079     3.3432 H            1    LIG   0.0000
  19 H            2.6371     3.1145     1.0999 H            1    LIG   0.0000
  20 H            3.5623     1.7695     1.0608 H            1    LIG   0.0000
  21 H            2.1659     0.7611     2.7051 H            1    LIG   0.0000
  22 H            1.2407     2.1061     2.7442 H            1    LIG   0.0000
  23 H            1.2389     2.7051    -0.1659 H            1    LIG   0.0000
  24 H           -0.0670     1.8190    -0.5857 H            1    LIG   0.0000
  25 H           -0.1061     2.7442     0.7593 H            1    LIG   0.0000
  26 H           -0.6675     0.8131     2.0713 H            1    LIG   0.0000
  27 H            3.1059    -0.5135     1.6749 H            1    LIG   0.0000
  28 H            4.4958    -1.9030     0.3030 H            1    LIG   0.0000
  29 H            6.2021    -3.8879    -1.7144 H            1    LIG   0.0000
  30 H            5.1752    -3.5400    -0.4934 H            1    LIG   0.0000
  31 H            7.2575    -2.4376    -0.1482 H            1    LIG   0.0000
  32 H            7.0979    -1.6852    -1.5888 H            1    LIG   0.0000
  33 H            6.0710    -1.3372    -0.3677 H            1    LIG   0.0000
  34 H            2.2522    -0.8442    -3.0267 H            1    LIG   0.0000
  35 H            0.8679     0.5431    -1.6463 H            1    LIG   0.0000
@<TRIPOS>BOND
   1        1        2 1
   2        2        3 1
   3        3        4 1
   4        4        5 1
   5        4        6 1
   6        4        7 1
   7        7        8 ar
   8        8        9 ar
   9        9       10 ar
  10       10       11 1
  11       11       12 1
  12       12       13 1
  13       10       14 ar
  14       14       15 ar
  15       15        7 ar
  16        1       16 1
  17        1       17 1
  18        1       18 1
  19        2       19 1
  20        2       20 1
  21        3       21 1
  22        3       22 1
  23        5       23 1
  24        5       24 1
  25        5       25 1
  26        6       26 1
  27        8       27 1
  28        9       28 1
  29       12       29 1
  30       12       30 1
  31       13       31 1
  32       13       32 1
  33       13       33 1
  34       14       34 1
  35       15       35 1

@<TRIPOS>MOLECULE

  35   35
SMALL
USER_CHARGES
@<TRIPOS>ATOM
   1 C1           3.8030     2.8756     2.8050 C.3          1    LIG   0.0000
   2 C2           2.9849     2.3468     1.6381 C.3          1    LIG   0.0000
   3 C3           1.8181     1.5288     2.1669 C.3          1    LIG   0.0000
   4 C4           1.0000     1.0000     1.0000 C.3          1    LIG   0.0000
   5 C5           0.4712     2.1669     0.1819 C.3          1    LIG   0.0000
   6 O6          -0.0901     0.2358     1.4940 O.3          1    LIG   0.0000
   7 C7           1.8775     0.1225     0.1225 C.ar         1    LIG   0.0000
   8 C8           2.9299    -0.5847     0.6931 C.ar         1    LIG   0.0000
   9 C9           3.7379    -1.3910    -0.1015 C.ar         1    LIG   0.0000
  10 C10          3.4791    -1.4766    -1.4656 C.ar         1    LIG   0.0000
  11 S11          4.4861    -2.4831    -2.4659 S.3          1    LIG   0.0000
  12 C12          5.6692    -3.1635    -1.2771 C.3          1    LIG   0.0000
  13 C13          4.9589    -4.1477    -0.3621 C.3          1    LIG   0.0000
  14 C14          2.4284    -0.7729    -2.0450 C.ar         1    LIG   0.0000
  15 C15          1.6258     0.0310    -1.2422 C.ar         1    LIG   0.0000
  16 H            4.5707     3.4138     2.4571 H            1    LIG   0.0000
  17 H            3.2256     3.4529     3.3823 H            1    LIG   0.0000
  18 H            4.1509     2.1079     3.3432 H            1    LIG   0.0000
  19 H            2.6371     3.1145     1.0999 H            1    LIG   0.0000
  20 H            3.5623     1.7695     1.0608 H            1    LIG   0.0000
  21 H            2.1659     0.7611     2.7051 H            1    LIG   0.0000
  22 H            1.2407     2.1061     2.7442 H            1    LIG   0.0000
  23 H            1.2389     2.7051    -0.1659 H            1    LIG   0.0000
  24 H           -0.0670     1.8190    -0.5857 H            1    LIG   0.0000
  25 H           -0.1061     2.7442     0.7593 H            1    LIG   0.0000
  26 H           -0.6675     0.8131     2.0713 H            1    LIG   0.0000
  27 H            3.1059    -0.5135     1.6749 H            1    LIG   0.0000
  28 H            4.4958    -1.9030     0.3030 H            1    LIG   0.0000
  29 H            6.0574    -2.4212    -0.7309 H            1    LIG   0.0000
  30 H            6.4021    -3.6343    -1.7683 H            1    LIG   0.0000
  31 H            5.6125    -4.5237     0.2948 H            1    LIG   0.0000
  32 H            4.2261    -3.6769     0.1292 H            1    LIG   0.0000
  33 H            4.5707    -4.8901    -0.9082 H            1    LIG   0.0000
  34 H            2.2522    -0.8442    -3.0267 H            1    LIG   0.0000
  35 H            0.8679     0.5431    -1.6463 H            1    LIG   0.0000
@<TRIPOS>BOND
   1        1        2 1
   2        2        3 1
   3        3        4 1
   4        4        5 1
   5        4        6 1
   6        4        7 1
   7        7        8 ar
   8        8        9 ar
   9        9       10 ar
  10       10       11 1
  11       11       12 1
  12       12       13 1
  13       10       14 ar
  14       14       15 ar
  15       15        7 ar
  16        1       16 1
  17        1       17 1
  18        1       18 1
  19        2       19 1
  20        2       20 1
  21        3       21 1
  22        3       22 1
  23        5       23 1
  24        5       24 1
  25        5       25 1
  26        6       26 1
  27        8       27 1
  28        9       28 1
  29       12       29 1
  30       12       30 1
  31       13       31 1
  32       13       32 1
  33       13       33 1
  34       14       34 1
  35       15       35 1

@<TRIPOS>MOLECULE

  35   35
SMALL
USER_CHARGES
@<TRIPOS>ATOM
   1 C1           3.8030     2.8756     2.8050 C.3          1    LIG   0.0000
   2 C2           2.9849     2.3468     1.6381 C.3          1    LIG   0.0000
   3 C3           1.8181     1.5288     2.1669 C.3          1    LIG   0.0000
   4 C4           1.0000     1.0000     1.0000 C.3          1    LIG   0.0000
   5 C5           0.4712     2.1669     0.1819 C.3          1    LIG   0.0000
   6 O6          -0.0901     0.2358     1.4940 O.3          1    LIG   0.0000
   7 C7           1.8775     0.1225     0.1225 C.ar         1    LIG   0.0000
   8 C8           2.9299    -0.5847     0.6931 C.ar         1    LIG   0.0000
   9 C9           3.7379    -1.3910    -0.1015 C.ar         1    LIG   0.0000
  10 C10          3.4791    -1.4766    -1.4656 C.ar         1    LIG   0.0000
  11 S11          4.4861    -2.4831    -2.4659 S.3          1    LIG   0.0000
  12 C12          5.7935    -1.3433    -2.9834 C.3          1    LIG   0.0000
  13 C13          5.2202    -0.3201    -3.9503 C.3          1    LIG   0.0000
  14 C14          2.4284    -0.7729    -2.0450 C.ar         1    LIG   0.0000
  15 C15          1.6258     0.0310    -1.2422 C.ar         1    LIG   0.0000
  16 H            4.5707     3.4138     2.4571 H            1    LIG   0.0000
  17 H            3.2256     3.4529     3.3823 H            1    LIG   0.0000
  18 H            4.1509     2.1079     3.3432 H            1    LIG   0.0000
  19 H            2.6371     3.1145     1.0999 H            1    LIG   0.0000
  20 H            3.5623     1.7695     1.0608 H            1    LIG   0.0000
  21 H            2.1659     0.7611     2.7051 H            1    LIG   0.0000
  22 H            1.2407     2.1061     2.7442 H            1    LIG   0.0000
  23 H            1.2389     2.7051    -0.1659 H            1    LIG   0.0000
  24 H           -0.0670     1.8190    -0.5857 H            1    LIG   0.0000
  25 H           -0.1061     2.7442     0.7593 H            1    LIG   0.0000
  26 H           -0.6675     0.8131     2.0713 H            1    LIG   0.0000
  27 H            3.1059    -0.5135     1.6749 H            1    LIG   0.0000
  28 H            4.4958    -1.9030     0.3030 H            1    LIG   0.0000
  29 H            6.5234    -1.8563    -3.4351 H            1    LIG   0.0000
  30 H            6.1630    -0.8737    -2.1816 H            1    LIG   0.0000
  31 H            5.9425     0.3096    -4.2362 H            1    LIG   0.0000
  32 H            4.8507    -0.7897    -4.7522 H            1    LIG   0.0000
  33 H            4.4902     0.1929    -3.4986 H            1    LIG   0.0000
  34 H            2.2522    -0.8442    -3.0267 H            1    LIG   0.0000
  35 H            0.8679     0.5431    -1.6463 H            1    LIG   0.0000
@<TRIPOS>BOND
   1        1        2 1
   2        2        3 1
   3        3        4 1
   4        4        5 1
   5        4        6 1
   6        4        7 1
   7        7        8 ar
   8        8        9 ar
   9        9       10 ar
  10       10       11 1
  11       11       12 1
  12       12       13 1
  13       10       14 ar
  14       14       15 ar
  15       15        7 ar
  16        1       16 1
  17        1       17 1
  18        1       18 1
  19        2       19 1
  20        2       20 1
  21        3       21 1
  22        3       22 1
  23        5       23 1
  24        5       24 1
  25        5       25 1
  26        6       26 1
  27        8       27 1
  28        9       28 1
  29       12       29 1
  30       12       30 1
  31       13       31 1
  32       13       32 1
  33       13       33 1
  34       14       34 1
  35       15       35 1

@<TRIPOS>MOLECULE

  35   35
SMALL
USER_CHARGES
@<TRIPOS>ATOM
   1 C1           3.8030     2.8756     2.8050 C.3          1    LIG   0.0000
   2 C2           2.9849     2.3468     1.6381 C.3          1    LIG   0.0000
   3 C3           1.8181     1.5288     2.1669 C.3          1    LIG   0.0000
   4 C4           1.0000     1.0000     1.0000 C.3          1    LIG   0.0000
   5 C5           0.4712     2.1669     0.1819 C.3          1    LIG   0.0000
   6 O6          -0.0901     0.2358     1.4940 O.3          1    LIG   0.0000
   7 C7           1.8775     0.1225     0.1225 C.ar         1    LIG   0.0000
   8 C8           2.9299    -0.5847     0.6931 C.ar         1    LIG   0.0000
   9 C9           3.7379    -1.3910    -0.1015 C.ar         1    LIG   0.0000
  10 C10          3.4791    -1.4766    -1.4656 C.ar         1    LIG   0.0000
  11 S11          4.4861    -2.4831    -2.4659 S.3          1    LIG   0.0000
  12 C12          3.6358    -4.0797    -2.4024 C.3          1    LIG   0.0000
  13 C13          3.7834    -4.6773    -1.0126 C.3          1    LIG   0.0000
  14 C14          2.4284    -0.7729    -2.0450 C.ar         1    LIG   0.0000
  15 C15          1.6258     0.0310    -1.2422 C.ar         1    LIG   0.0000
  16 H            4.5707     3.4138     2.4571 H            1    LIG   0.0000
  17 H            3.2256     3.4529     3.3823 H            1    LIG   0.0000
  18 H            4.1509     2.1079     3.3432 H            1    LIG   0.0000
  19 H            2.6371     3.1145     1.0999 H            1    LIG   0.0000
  20 H            3.5623     1.7695     1.0608 H            1    LIG   0.0000
  21 H            2.1659     0.7611     2.7051 H            1    LIG   0.0000
  22 H            1.2407     2.1061     2.7442 H            1    LIG   0.0000
  23 H            1.2389     2.7051    -0.1659 H            1    LIG   0.0000
  24 H           -0.0670     1.8190    -0.5857 H            1    LIG   0.0000
  25 H           -0.1061     2.7442     0.7593 H            1    LIG   0.0000
  26 H           -0.6675     0.8131     2.0713 H            1    LIG   0.0000
  27 H            3.1059    -0.5135     1.6749 H            1    LIG   0.0000
  28 H            4.4958    -1.9030     0.3030 H            1    LIG   0.0000
  29 H            4.0388    -4.6990    -3.0761 H            1    LIG   0.0000
  30 H            2.6659    -3.9491    -2.6078 H            1    LIG   0.0000
  31 H            3.3136    -5.5594    -0.9775 H            1    LIG   0.0000
  32 H            4.7533    -4.8078    -0.8072 H            1    LIG   0.0000
  33 H            3.3803    -4.0579    -0.3389 H            1    LIG   0.0000
  34 H            2.2522    -0.8442    -3.0267 H            1    LIG   0.0000
  35 H            0.8679     0.5431    -1.6463 H            1    LIG   0.0000
@<TRIPOS>BOND
   1        1        2 1
   2        2        3 1
   3        3        4 1
   4        4        5 1
   5        4        6 1
   6        4        7 1
   7        7        8 ar
   8        8        9 ar
   9        9       10 ar
  10       10       11 1
  11       11       12 1
  12       12       13 1
  13       10       14 ar
  14       14       15 ar
  15       15        7 ar
  16        1       16 1
  17        1       17 1
  18        1       18 1
  19        2       19 1
  20        2       20 1
  21        3       21 1
  22        3       22 1
  23        5       23 1
  24        5       24 1
  25        5       25 1
  26        6       26 1
  27        8       27 1
  28        9       28 1
  29       12       29 1
  30       12       30 1
  31       13       31 1
  32       13       32 1
  33       13       33 1
  34       14       34 1
  35       15       35 1

@<TRIPOS>MOLECULE

  35   35
SMALL
USER_CHARGES
@<TRIPOS>ATOM
   1 C1           3.8030     2.8756     2.8050 C.3          1    LIG   0.0000
   2 C2           2.9849     2.3468     1.6381 C.3          1    LIG   0.0000
   3 C3           1.8181     1.5288     2.1669 C.3          1    LIG   0.0000
   4 C4           1.0000     1.0000     1.0000 C.3          1    LIG   0.0000
   5 C5           0.4712     2.1669     0.1819 C.3          1    LIG   0.0000
   6 O6          -0.0901     0.2358     1.4940 O.3          1    LIG   0.0000
   7 C7           1.8775     0.1225     0.1225 C.ar         1    LIG   0.0000
   8 C8           2.9299    -0.5847     0.6931 C.ar         1    LIG   0.0000
   9 C9           3.7379    -1.3910    -0.1015 C.ar         1    LIG   0.0000
  10 C10          3.4791    -1.4766    -1.4656 C.ar         1    LIG   0.0000
  11 S11          4.4861    -2.4831    -2.4659 S.3          1    LIG   0.0000
  12 C12          3.6358    -4.0797    -2.4024 C.3          1    LIG   0.0000
  13 C13          2.3279    -3.9881    -3.1714 C.3          1    LIG   0.0000
  14 C14          2.4284    -0.7729    -2.0450 C.ar         1    LIG   0.0000
  15 C15          1.6258     0.0310    -1.2422 C.ar         1    LIG   0.0000
  16 H            4.5707     3.4138     2.4571 H            1    LIG   0.0000
  17 H            3.2256     3.4529     3.3823 H            1    LIG   0.0000
  18 H            4.1509     2.1079     3.3432 H            1    LIG   0.0000
  19 H            2.6371     3.1145     1.0999 H            1    LIG   0.0000
  20 H            3.5623     1.7695     1.0608 H            1    LIG   0.0000
  21 H            2.1659     0.7611     2.7051 H            1    LIG   0.0000
  22 H            1.2407     2.1061     2.7442 H            1    LIG   0.0000
  23 H            1.2389     2.7051    -0.1659 H            1    LIG   0.0000
  24 H           -0.0670     1.8190    -0.5857 H            1    LIG   0.0000
  25 H           -0.1061     2.7442     0.7593 H            1    LIG   0.0000
  26 H           -0.6675     0.8131     2.0713 H            1    LIG   0.0000
  27 H            3.1059    -0.5135     1.6749 H            1    LIG   0.0000
  28 H            4.4958    -1.9030     0.3030 H            1    LIG   0.0000
  29 H            3.4465    -4.3188    -1.4500 H            1    LIG   0.0000
  30 H            4.2158    -4.7828    -2.8137 H            1    LIG   0.0000
  31 H            1.8581    -4.8702    -3.1363 H            1    LIG   0.0000
  32 H            1.7479    -3.2849    -2.7601 H            1    LIG   0.0000
  33 H            2.5172    -3.7489    -4.1237 H            1    LIG   0.0000
  34 H            2.2522    -0.8442    -3.0267 H            1    LIG   0.0000
  35 H            0.8679     0.5431    -1.6463 H            1    LIG   0.0000
@<TRIPOS>BOND
   1        1        2 1
   2        2        3 1
   3        3        4 1
   4        4        5 1
   5        4        6 1
   6        4        7 1
   7        7        8 ar
   8        8        9 ar
   9        9       10 ar
  10       10       11 1
  11       11       12 1
  12       12       13 1
  13       10       14 ar
  14       14       15 ar
  15       15        7 ar
  16        1       16 1
  17        1       17 1
  18        1       18 1
  19        2       19 1
  20        2       20 1
  21        3       21 1
  22        3       22 1
  23        5       23 1
  24        5       24 1
  25        5       25 1
  26        6       26 1
  27        8       27 1
  28        9       28 1
  29       12       29 1
  30       12       30 1
  31       13       31 1
  32       13       32 1
  33       13       33 1
  34       14       34 1
  35       15       35 1

