@<TRIPOS>MOLECULE
*****
 35 35 0 0 0
SMALL
USER_CHARGES

@<TRIPOS>ATOM
      1 C1          3.8030    2.8756    2.8050 C.3     1  LIG1        0.0000
      2 C2          2.9849    2.3468    1.6381 C.3     1  LIG1        0.0000
      3 C3          1.8181    1.5288    2.1669 C.3     1  LIG1        0.0000
      4 C4          1.0000    1.0000    1.0000 C.3     1  LIG1        0.0000
      5 C5          0.4712    2.1669    0.1819 C.3     1  LIG1        0.0000
      6 O6         -0.0901    0.2358    1.4940 O.3     1  LIG1        0.0000
      7 C7          1.8775    0.1225    0.1225 C.ar    1  LIG1        0.0000
      8 C8          2.5847    0.6931   -0.9299 C.ar    1  LIG1        0.0000
      9 C9          3.3910   -0.1015   -1.7379 C.ar    1  LIG1        0.0000
     10 C10         3.4766   -1.4656   -1.4791 C.ar    1  LIG1        0.0000
     11 S11         4.4831   -2.4659   -2.4861 S.3     1  LIG1        0.0000
     12 C12         6.0797   -2.4024   -1.6358 C.3     1  LIG1        0.0000
     13 C13         7.0934   -3.2400   -2.3981 C.3     1  LIG1        0.0000
     14 C14         2.7729   -2.0450   -0.4284 C.ar    1  LIG1        0.0000
     15 C15         1.9690   -1.2422    0.3742 C.ar    1  LIG1        0.0000
     16 H           4.5707    3.4138    2.4571 H       1  LIG1        0.0000
     17 H           3.2256    3.4529    3.3823 H       1  LIG1        0.0000
     18 H           4.1509    2.1079    3.3432 H       1  LIG1        0.0000
     19 H           2.6371    3.1145    1.0999 H       1  LIG1        0.0000
     20 H           3.5623    1.7695    1.0608 H       1  LIG1        0.0000
     21 H           2.1659    0.7611    2.7051 H       1  LIG1        0.0000
     22 H           1.2407    2.1061    2.7442 H       1  LIG1        0.0000
     23 H           1.2389    2.7051   -0.1659 H       1  LIG1        0.0000
     24 H          -0.0670    1.8190   -0.5857 H       1  LIG1        0.0000
     25 H          -0.1061    2.7442    0.7593 H       1  LIG1        0.0000
     26 H          -0.6675    0.8131    2.0713 H       1  LIG1        0.0000
     27 H           2.5135    1.6749   -1.1059 H       1  LIG1        0.0000
     28 H           3.9030    0.3030   -2.4958 H       1  LIG1        0.0000
     29 H           5.9783   -2.7637   -0.7089 H       1  LIG1        0.0000
     30 H           6.3962   -1.4548   -1.5914 H       1  LIG1        0.0000
     31 H           7.9755   -3.2049   -1.9283 H       1  LIG1        0.0000
     32 H           6.7769   -4.1875   -2.4425 H       1  LIG1        0.0000
     33 H           7.1948   -2.8786   -3.3250 H       1  LIG1        0.0000
     34 H           2.8442   -3.0267   -0.2522 H       1  LIG1        0.0000
     35 H           1.4569   -1.6463    1.1321 H       1  LIG1        0.0000
@<TRIPOS>BOND
     1     1     2    1
     2     2     3    1
     3     3     4    1
     4     4     5    1
     5     4     6    1
     6     4     7    1
     7     7     8   ar
     8     8     9   ar
     9     9    10   ar
    10    10    11    1
    11    11    12    1
    12    12    13    1
    13    10    14   ar
    14    14    15   ar
    15    15     7   ar
    16     1    16    1
    17     1    17    1
    18     1    18    1
    19     2    19    1
    20     2    20    1
    21     3    21    1
    22     3    22    1
    23     5    23    1
    24     5    24    1
    25     5    25    1
    26     6    26    1
    27     8    27    1
    28     9    28    1
    29    12    29    1
    30    12    30    1
    31    13    31    1
    32    13    32    1
    33    13    33    1
    34    14    34    1
    35    15    35    1
