@<TRIPOS>MOLECULE
*****
 35 35 0 0 0
SMALL
USER_CHARGES

@<TRIPOS>ATOM
      1 C1          3.8030    2.8756    2.8050 C.3     1  LIG1        0.0000
      2 C2          2.9849    2.3468    1.6381 C.3     1  LIG1        0.0000
      3 C3          1.8181    1.5288    2.1669 C.3     1  LIG1        0.0000
      4 C4          1.0000    1.0000    1.0000 C.3     1  LIG1        0.0000
      5 C5          0.4712    2.1669    0.1819 C.3     1  LIG1        0.0000
      6 O6         -0.0901    0.2358    1.4940 O.3     1  LIG1        0.0000
      7 C7          1.8775    0.1225    0.1225 C.ar    1  LIG1        0.0000
      8 C8          2.4732   -1.0115    0.6632 C.ar    1  LIG1        0.0000
      9 C9          3.2771   -1.8213   -0.1320 C.ar    1  LIG1        0.0000
     10 C10         3.4752   -1.4801   -1.4660 C.ar    1  LIG1        0.0000
     11 S11         4.4801   -2.4883   -2.4667 S.3     1  LIG1        0.0000
     12 C12         4.9952   -3.7924   -1.3222 C.3     1  LIG1        0.0000
     13 C13         5.8963   -4.7775   -2.0488 C.3     1  LIG1        0.0000
     14 C14         2.8832   -0.3477   -2.0154 C.ar    1  LIG1        0.0000
     15 C15         2.0808    0.4561   -1.2122 C.ar    1  LIG1        0.0000
     16 H           4.5707    3.4138    2.4571 H       1  LIG1        0.0000
     17 H           3.2256    3.4529    3.3823 H       1  LIG1        0.0000
     18 H           4.1509    2.1079    3.3432 H       1  LIG1        0.0000
     19 H           2.6371    3.1145    1.0999 H       1  LIG1        0.0000
     20 H           3.5623    1.7695    1.0608 H       1  LIG1        0.0000
     21 H           2.1659    0.7611    2.7051 H       1  LIG1        0.0000
     22 H           1.2407    2.1061    2.7442 H       1  LIG1        0.0000
     23 H           1.2389    2.7051   -0.1659 H       1  LIG1        0.0000
     24 H          -0.0670    1.8190   -0.5857 H       1  LIG1        0.0000
     25 H          -0.1061    2.7442    0.7593 H       1  LIG1        0.0000
     26 H          -0.6675    0.8131    2.0713 H       1  LIG1        0.0000
     27 H           2.3235   -1.2450    1.6240 H       1  LIG1        0.0000
     28 H           3.7075   -2.6389    0.2506 H       1  LIG1        0.0000
     29 H           4.1879   -4.2711   -0.9771 H       1  LIG1        0.0000
     30 H           5.4943   -3.3862   -0.5567 H       1  LIG1        0.0000
     31 H           6.1809   -5.4980   -1.4165 H       1  LIG1        0.0000
     32 H           5.3972   -5.1838   -2.8142 H       1  LIG1        0.0000
     33 H           6.7037   -4.2988   -2.3939 H       1  LIG1        0.0000
     34 H           3.0326   -0.1142   -2.9763 H       1  LIG1        0.0000
     35 H           1.6503    1.2737   -1.5945 H       1  LIG1        0.0000
@<TRIPOS>BOND
     1     1     2    1
     2     2     3    1
     3     3     4    1
     4     4     5    1
     5     4     6    1
     6     4     7    1
     7     7     8   ar
     8     8     9   ar
     9     9    10   ar
    10    10    11    1
    11    11    12    1
    12    12    13    1
    13    10    14   ar
    14    14    15   ar
    15    15     7   ar
    16     1    16    1
    17     1    17    1
    18     1    18    1
    19     2    19    1
    20     2    20    1
    21     3    21    1
    22     3    22    1
    23     5    23    1
    24     5    24    1
    25     5    25    1
    26     6    26    1
    27     8    27    1
    28     9    28    1
    29    12    29    1
    30    12    30    1
    31    13    31    1
    32    13    32    1
    33    13    33    1
    34    14    34    1
    35    15    35    1
