@<TRIPOS>MOLECULE

  33   35
SMALL
USER_CHARGES
@<TRIPOS>ATOM
   1 C1           4.1258     1.6121    -1.1928 C.3          1    LIG   0.0000
   2 C2           3.9305     2.5949    -0.0495 C.2          1    LIG   0.0000
   3 N3           4.5655     3.7544    -0.0006 N.2          1    LIG   0.0000
   4 C4           4.3878     4.6410     1.0319 C.2          1    LIG   0.0000
   5 C5           4.9025     5.8702     1.3199 C.2          1    LIG   0.0000
   6 C6           4.3261     6.2836     2.5422 C.2          1    LIG   0.0000
   7 N7           3.5184     5.3244     2.9280 N.2          1    LIG   0.0000
   8 N8           3.5402     4.3417     2.0478 N.pl3        1    LIG   0.0000
   9 C9           2.8688     3.1498     2.0242 C.2          1    LIG   0.0000
  10 C10          3.0350     2.2557     1.0000 C.2          1    LIG   0.0000
  11 C11          2.3100     1.0000     1.0000 C.2          1    LIG   0.0000
  12 O12          2.9100    -0.0392     1.0000 O.2          1    LIG   0.0000
  13 O13          1.0000     1.0000     1.0000 O.3          1    LIG   0.0000
  14 C14          0.3870    -0.2851     1.0000 C.3          1    LIG   0.0000
  15 C15          0.5529    -0.9937    -0.3390 C.3          1    LIG   0.0000
  16 C16          0.7594    -1.1215     2.2058 C.3          1    LIG   0.0000
  17 C17         -0.6709    -1.6122     2.2137 C.3          1    LIG   0.0000
  18 C18         -1.0032    -0.2780     1.5909 C.3          1    LIG   0.0000
  19 H            3.5576     0.8038    -1.0383 H            1    LIG   0.0000
  20 H            3.8612     2.0459    -2.0541 H            1    LIG   0.0000
  21 H            5.0870     1.3401    -1.2381 H            1    LIG   0.0000
  22 H            5.5627     6.3823     0.7703 H            1    LIG   0.0000
  23 H            4.5006     7.1435     3.0219 H            1    LIG   0.0000
  24 H            2.2429     2.9264     2.7714 H            1    LIG   0.0000
  25 H            0.1106    -1.8896    -0.2991 H            1    LIG   0.0000
  26 H            0.1307    -0.4453    -1.0609 H            1    LIG   0.0000
  27 H            1.5264    -1.1110    -0.5357 H            1    LIG   0.0000
  28 H            1.0255    -0.5955     3.0135 H            1    LIG   0.0000
  29 H            1.4432    -1.8293     2.0287 H            1    LIG   0.0000
  30 H           -1.0618    -1.7660     3.1212 H            1    LIG   0.0000
  31 H           -0.8501    -2.4074     1.6345 H            1    LIG   0.0000
  32 H           -1.7428    -0.3040     0.9182 H            1    LIG   0.0000
  33 H           -1.1745     0.4576     2.2463 H            1    LIG   0.0000
@<TRIPOS>BOND
   1        1        2 1
   2        2        3 2
   3        3        4 1
   4        4        5 2
   5        5        6 1
   6        6        7 2
   7        7        8 1
   8        8        4 1
   9        8        9 1
  10        9       10 2
  11       10        2 1
  12       10       11 1
  13       11       12 2
  14       11       13 1
  15       13       14 1
  16       14       15 1
  17       14       16 1
  18       16       17 1
  19       17       18 1
  20       18       14 1
  21        1       19 1
  22        1       20 1
  23        1       21 1
  24        5       22 1
  25        6       23 1
  26        9       24 1
  27       15       25 1
  28       15       26 1
  29       15       27 1
  30       16       28 1
  31       16       29 1
  32       17       30 1
  33       17       31 1
  34       18       32 1
  35       18       33 1

@<TRIPOS>MOLECULE

  33   35
SMALL
USER_CHARGES
@<TRIPOS>ATOM
   1 C1           4.1258     1.6121    -1.1928 C.3          1    LIG   0.0000
   2 C2           3.9305     2.5949    -0.0495 C.2          1    LIG   0.0000
   3 N3           4.5655     3.7544    -0.0006 N.2          1    LIG   0.0000
   4 C4           4.3878     4.6410     1.0319 C.2          1    LIG   0.0000
   5 C5           4.9025     5.8702     1.3199 C.2          1    LIG   0.0000
   6 C6           4.3261     6.2836     2.5422 C.2          1    LIG   0.0000
   7 N7           3.5184     5.3244     2.9280 N.2          1    LIG   0.0000
   8 N8           3.5402     4.3417     2.0478 N.pl3        1    LIG   0.0000
   9 C9           2.8688     3.1498     2.0242 C.2          1    LIG   0.0000
  10 C10          3.0350     2.2557     1.0000 C.2          1    LIG   0.0000
  11 C11          2.3100     1.0000     1.0000 C.2          1    LIG   0.0000
  12 O12          2.9100    -0.0392     1.0000 O.2          1    LIG   0.0000
  13 O13          1.0000     1.0000     1.0000 O.3          1    LIG   0.0000
  14 C14          0.3878    -0.2835     1.0000 C.3          1    LIG   0.0000
  15 C15          0.5373    -0.9502     2.3559 C.3          1    LIG   0.0000
  16 C16          0.7746    -1.1028    -0.2155 C.3          1    LIG   0.0000
  17 C17         -0.6433    -1.6226    -0.1981 C.3          1    LIG   0.0000
  18 C18         -1.0164    -0.3077     0.4363 C.3          1    LIG   0.0000
  19 H            3.5576     0.8038    -1.0383 H            1    LIG   0.0000
  20 H            3.8612     2.0459    -2.0541 H            1    LIG   0.0000
  21 H            5.0870     1.3401    -1.2381 H            1    LIG   0.0000
  22 H            5.5627     6.3823     0.7703 H            1    LIG   0.0000
  23 H            4.5006     7.1435     3.0219 H            1    LIG   0.0000
  24 H            2.2429     2.9264     2.7714 H            1    LIG   0.0000
  25 H            0.1010    -1.8498     2.3350 H            1    LIG   0.0000
  26 H            1.5084    -1.0556     2.5702 H            1    LIG   0.0000
  27 H            0.1010    -0.3844     3.0555 H            1    LIG   0.0000
  28 H            1.4783    -1.7939    -0.0507 H            1    LIG   0.0000
  29 H            1.0165    -0.5671    -1.0245 H            1    LIG   0.0000
  30 H           -0.7902    -2.4254     0.3798 H            1    LIG   0.0000
  31 H           -1.0438    -1.7834    -1.1001 H            1    LIG   0.0000
  32 H           -1.2223     0.4271    -0.2100 H            1    LIG   0.0000
  33 H           -1.7431    -0.3627     1.1210 H            1    LIG   0.0000
@<TRIPOS>BOND
   1        1        2 1
   2        2        3 2
   3        3        4 1
   4        4        5 2
   5        5        6 1
   6        6        7 2
   7        7        8 1
   8        8        4 1
   9        8        9 1
  10        9       10 2
  11       10        2 1
  12       10       11 1
  13       11       12 2
  14       11       13 1
  15       13       14 1
  16       14       15 1
  17       14       16 1
  18       16       17 1
  19       17       18 1
  20       18       14 1
  21        1       19 1
  22        1       20 1
  23        1       21 1
  24        5       22 1
  25        6       23 1
  26        9       24 1
  27       15       25 1
  28       15       26 1
  29       15       27 1
  30       16       28 1
  31       16       29 1
  32       17       30 1
  33       17       31 1
  34       18       32 1
  35       18       33 1

@<TRIPOS>MOLECULE

  33   35
SMALL
USER_CHARGES
@<TRIPOS>ATOM
   1 C1           4.1258     1.6121    -1.1928 C.3          1    LIG   0.0000
   2 C2           3.9305     2.5949    -0.0495 C.2          1    LIG   0.0000
   3 N3           4.5655     3.7544    -0.0006 N.2          1    LIG   0.0000
   4 C4           4.3878     4.6410     1.0319 C.2          1    LIG   0.0000
   5 C5           4.9025     5.8702     1.3199 C.2          1    LIG   0.0000
   6 C6           4.3261     6.2836     2.5422 C.2          1    LIG   0.0000
   7 N7           3.5184     5.3244     2.9280 N.2          1    LIG   0.0000
   8 N8           3.5402     4.3417     2.0478 N.pl3        1    LIG   0.0000
   9 C9           2.8688     3.1498     2.0242 C.2          1    LIG   0.0000
  10 C10          3.0350     2.2557     1.0000 C.2          1    LIG   0.0000
  11 C11          2.3100     1.0000     1.0000 C.2          1    LIG   0.0000
  12 O12          2.9100    -0.0392     1.0000 O.2          1    LIG   0.0000
  13 O13          1.0000     1.0000     1.0000 O.3          1    LIG   0.0000
  14 C14          0.3887    -0.2816     1.0000 C.3          1    LIG   0.0000
  15 C15         -1.1080    -0.2119     1.2356 C.3          1    LIG   0.0000
  16 C16          0.7452    -1.1349    -0.1935 C.3          1    LIG   0.0000
  17 C17          1.4782    -2.1063     0.7037 C.3          1    LIG   0.0000
  18 C18          1.0677    -1.2840     1.9066 C.3          1    LIG   0.0000
  19 H            3.5576     0.8038    -1.0383 H            1    LIG   0.0000
  20 H            3.8612     2.0459    -2.0541 H            1    LIG   0.0000
  21 H            5.0870     1.3401    -1.2381 H            1    LIG   0.0000
  22 H            5.5627     6.3823     0.7703 H            1    LIG   0.0000
  23 H            4.5006     7.1435     3.0219 H            1    LIG   0.0000
  24 H            2.2429     2.9264     2.7714 H            1    LIG   0.0000
  25 H           -1.4903    -1.1359     1.2266 H            1    LIG   0.0000
  26 H           -1.2864     0.2140     2.1226 H            1    LIG   0.0000
  27 H           -1.5342     0.3322     0.5129 H            1    LIG   0.0000
  28 H            1.3317    -0.6759    -0.8608 H            1    LIG   0.0000
  29 H           -0.0454    -1.5306    -0.6610 H            1    LIG   0.0000
  30 H            2.4655    -2.1422     0.5491 H            1    LIG   0.0000
  31 H            1.1055    -3.0342     0.6946 H            1    LIG   0.0000
  32 H            0.4446    -1.7569     2.5296 H            1    LIG   0.0000
  33 H            1.8362    -0.9090     2.4250 H            1    LIG   0.0000
@<TRIPOS>BOND
   1        1        2 1
   2        2        3 2
   3        3        4 1
   4        4        5 2
   5        5        6 1
   6        6        7 2
   7        7        8 1
   8        8        4 1
   9        8        9 1
  10        9       10 2
  11       10        2 1
  12       10       11 1
  13       11       12 2
  14       11       13 1
  15       13       14 1
  16       14       15 1
  17       14       16 1
  18       16       17 1
  19       17       18 1
  20       18       14 1
  21        1       19 1
  22        1       20 1
  23        1       21 1
  24        5       22 1
  25        6       23 1
  26        9       24 1
  27       15       25 1
  28       15       26 1
  29       15       27 1
  30       16       28 1
  31       16       29 1
  32       17       30 1
  33       17       31 1
  34       18       32 1
  35       18       33 1

@<TRIPOS>MOLECULE

  33   35
SMALL
USER_CHARGES
@<TRIPOS>ATOM
   1 C1           4.1252     1.6124     3.1932 C.3          1    LIG   0.0000
   2 C2           3.9305     2.5949     2.0495 C.2          1    LIG   0.0000
   3 N3           4.5676     3.7532     1.9992 N.2          1    LIG   0.0000
   4 C4           4.3912     4.6390     0.9658 C.2          1    LIG   0.0000
   5 C5           4.9094     5.8663     0.6756 C.2          1    LIG   0.0000
   6 C6           4.3331     6.2795    -0.5469 C.2          1    LIG   0.0000
   7 N7           3.5217     5.3225    -0.9302 N.2          1    LIG   0.0000
   8 N8           3.5408     4.3413    -0.0483 N.pl3        1    LIG   0.0000
   9 C9           2.8683     3.1501    -0.0238 C.2          1    LIG   0.0000
  10 C10          3.0350     2.2557     1.0000 C.2          1    LIG   0.0000
  11 C11          2.3100     1.0000     1.0000 C.2          1    LIG   0.0000
  12 O12          2.9100    -0.0392     1.0000 O.2          1    LIG   0.0000
  13 O13          1.0000     1.0000     1.0000 O.3          1    LIG   0.0000
  14 C14          0.3870    -0.2851     1.0000 C.3          1    LIG   0.0000
  15 C15          0.5529    -0.9937    -0.3390 C.3          1    LIG   0.0000
  16 C16          0.7594    -1.1215     2.2058 C.3          1    LIG   0.0000
  17 C17         -0.6709    -1.6122     2.2137 C.3          1    LIG   0.0000
  18 C18         -1.0032    -0.2780     1.5909 C.3          1    LIG   0.0000
  19 H            3.5554     0.8051     3.0398 H            1    LIG   0.0000
  20 H            5.0860     1.3387     3.2375 H            1    LIG   0.0000
  21 H            3.8623     2.0472     4.0545 H            1    LIG   0.0000
  22 H            5.5716     6.3772     1.2237 H            1    LIG   0.0000
  23 H            4.5101     7.1380    -1.0282 H            1    LIG   0.0000
  24 H            2.2411     2.9274    -0.7702 H            1    LIG   0.0000
  25 H            0.1106    -1.8896    -0.2991 H            1    LIG   0.0000
  26 H            0.1307    -0.4453    -1.0609 H            1    LIG   0.0000
  27 H            1.5264    -1.1110    -0.5357 H            1    LIG   0.0000
  28 H            1.0255    -0.5955     3.0135 H            1    LIG   0.0000
  29 H            1.4432    -1.8293     2.0287 H            1    LIG   0.0000
  30 H           -1.0618    -1.7660     3.1212 H            1    LIG   0.0000
  31 H           -0.8501    -2.4074     1.6345 H            1    LIG   0.0000
  32 H           -1.7428    -0.3040     0.9182 H            1    LIG   0.0000
  33 H           -1.1745     0.4576     2.2463 H            1    LIG   0.0000
@<TRIPOS>BOND
   1        1        2 1
   2        2        3 2
   3        3        4 1
   4        4        5 2
   5        5        6 1
   6        6        7 2
   7        7        8 1
   8        8        4 1
   9        8        9 1
  10        9       10 2
  11       10        2 1
  12       10       11 1
  13       11       12 2
  14       11       13 1
  15       13       14 1
  16       14       15 1
  17       14       16 1
  18       16       17 1
  19       17       18 1
  20       18       14 1
  21        1       19 1
  22        1       20 1
  23        1       21 1
  24        5       22 1
  25        6       23 1
  26        9       24 1
  27       15       25 1
  28       15       26 1
  29       15       27 1
  30       16       28 1
  31       16       29 1
  32       17       30 1
  33       17       31 1
  34       18       32 1
  35       18       33 1

@<TRIPOS>MOLECULE

  33   35
SMALL
USER_CHARGES
@<TRIPOS>ATOM
   1 C1           4.1252     1.6124     3.1932 C.3          1    LIG   0.0000
   2 C2           3.9305     2.5949     2.0495 C.2          1    LIG   0.0000
   3 N3           4.5676     3.7532     1.9992 N.2          1    LIG   0.0000
   4 C4           4.3912     4.6390     0.9658 C.2          1    LIG   0.0000
   5 C5           4.9094     5.8663     0.6756 C.2          1    LIG   0.0000
   6 C6           4.3331     6.2795    -0.5469 C.2          1    LIG   0.0000
   7 N7           3.5217     5.3225    -0.9302 N.2          1    LIG   0.0000
   8 N8           3.5408     4.3413    -0.0483 N.pl3        1    LIG   0.0000
   9 C9           2.8683     3.1501    -0.0238 C.2          1    LIG   0.0000
  10 C10          3.0350     2.2557     1.0000 C.2          1    LIG   0.0000
  11 C11          2.3100     1.0000     1.0000 C.2          1    LIG   0.0000
  12 O12          2.9100    -0.0392     1.0000 O.2          1    LIG   0.0000
  13 O13          1.0000     1.0000     1.0000 O.3          1    LIG   0.0000
  14 C14          0.3878    -0.2835     1.0000 C.3          1    LIG   0.0000
  15 C15          0.5373    -0.9502     2.3559 C.3          1    LIG   0.0000
  16 C16          0.7746    -1.1028    -0.2155 C.3          1    LIG   0.0000
  17 C17         -0.6433    -1.6226    -0.1981 C.3          1    LIG   0.0000
  18 C18         -1.0164    -0.3077     0.4363 C.3          1    LIG   0.0000
  19 H            3.5554     0.8051     3.0398 H            1    LIG   0.0000
  20 H            5.0860     1.3387     3.2375 H            1    LIG   0.0000
  21 H            3.8623     2.0472     4.0545 H            1    LIG   0.0000
  22 H            5.5716     6.3772     1.2237 H            1    LIG   0.0000
  23 H            4.5101     7.1380    -1.0282 H            1    LIG   0.0000
  24 H            2.2411     2.9274    -0.7702 H            1    LIG   0.0000
  25 H            0.1010    -1.8498     2.3350 H            1    LIG   0.0000
  26 H            1.5084    -1.0556     2.5702 H            1    LIG   0.0000
  27 H            0.1010    -0.3844     3.0555 H            1    LIG   0.0000
  28 H            1.4783    -1.7939    -0.0507 H            1    LIG   0.0000
  29 H            1.0165    -0.5671    -1.0245 H            1    LIG   0.0000
  30 H           -0.7902    -2.4254     0.3798 H            1    LIG   0.0000
  31 H           -1.0438    -1.7834    -1.1001 H            1    LIG   0.0000
  32 H           -1.2223     0.4271    -0.2100 H            1    LIG   0.0000
  33 H           -1.7431    -0.3627     1.1210 H            1    LIG   0.0000
@<TRIPOS>BOND
   1        1        2 1
   2        2        3 2
   3        3        4 1
   4        4        5 2
   5        5        6 1
   6        6        7 2
   7        7        8 1
   8        8        4 1
   9        8        9 1
  10        9       10 2
  11       10        2 1
  12       10       11 1
  13       11       12 2
  14       11       13 1
  15       13       14 1
  16       14       15 1
  17       14       16 1
  18       16       17 1
  19       17       18 1
  20       18       14 1
  21        1       19 1
  22        1       20 1
  23        1       21 1
  24        5       22 1
  25        6       23 1
  26        9       24 1
  27       15       25 1
  28       15       26 1
  29       15       27 1
  30       16       28 1
  31       16       29 1
  32       17       30 1
  33       17       31 1
  34       18       32 1
  35       18       33 1

@<TRIPOS>MOLECULE

  33   35
SMALL
USER_CHARGES
@<TRIPOS>ATOM
   1 C1           4.1252     1.6124     3.1932 C.3          1    LIG   0.0000
   2 C2           3.9305     2.5949     2.0495 C.2          1    LIG   0.0000
   3 N3           4.5676     3.7532     1.9992 N.2          1    LIG   0.0000
   4 C4           4.3912     4.6390     0.9658 C.2          1    LIG   0.0000
   5 C5           4.9094     5.8663     0.6756 C.2          1    LIG   0.0000
   6 C6           4.3331     6.2795    -0.5469 C.2          1    LIG   0.0000
   7 N7           3.5217     5.3225    -0.9302 N.2          1    LIG   0.0000
   8 N8           3.5408     4.3413    -0.0483 N.pl3        1    LIG   0.0000
   9 C9           2.8683     3.1501    -0.0238 C.2          1    LIG   0.0000
  10 C10          3.0350     2.2557     1.0000 C.2          1    LIG   0.0000
  11 C11          2.3100     1.0000     1.0000 C.2          1    LIG   0.0000
  12 O12          2.9100    -0.0392     1.0000 O.2          1    LIG   0.0000
  13 O13          1.0000     1.0000     1.0000 O.3          1    LIG   0.0000
  14 C14          0.3887    -0.2816     1.0000 C.3          1    LIG   0.0000
  15 C15         -1.1080    -0.2119     1.2356 C.3          1    LIG   0.0000
  16 C16          0.7452    -1.1349    -0.1935 C.3          1    LIG   0.0000
  17 C17          1.4782    -2.1063     0.7037 C.3          1    LIG   0.0000
  18 C18          1.0677    -1.2840     1.9066 C.3          1    LIG   0.0000
  19 H            3.5554     0.8051     3.0398 H            1    LIG   0.0000
  20 H            5.0860     1.3387     3.2375 H            1    LIG   0.0000
  21 H            3.8623     2.0472     4.0545 H            1    LIG   0.0000
  22 H            5.5716     6.3772     1.2237 H            1    LIG   0.0000
  23 H            4.5101     7.1380    -1.0282 H            1    LIG   0.0000
  24 H            2.2411     2.9274    -0.7702 H            1    LIG   0.0000
  25 H           -1.4903    -1.1359     1.2266 H            1    LIG   0.0000
  26 H           -1.2864     0.2140     2.1226 H            1    LIG   0.0000
  27 H           -1.5342     0.3322     0.5129 H            1    LIG   0.0000
  28 H            1.3317    -0.6759    -0.8608 H            1    LIG   0.0000
  29 H           -0.0454    -1.5306    -0.6610 H            1    LIG   0.0000
  30 H            2.4655    -2.1422     0.5491 H            1    LIG   0.0000
  31 H            1.1055    -3.0342     0.6946 H            1    LIG   0.0000
  32 H            0.4446    -1.7569     2.5296 H            1    LIG   0.0000
  33 H            1.8362    -0.9090     2.4250 H            1    LIG   0.0000
@<TRIPOS>BOND
   1        1        2 1
   2        2        3 2
   3        3        4 1
   4        4        5 2
   5        5        6 1
   6        6        7 2
   7        7        8 1
   8        8        4 1
   9        8        9 1
  10        9       10 2
  11       10        2 1
  12       10       11 1
  13       11       12 2
  14       11       13 1
  15       13       14 1
  16       14       15 1
  17       14       16 1
  18       16       17 1
  19       17       18 1
  20       18       14 1
  21        1       19 1
  22        1       20 1
  23        1       21 1
  24        5       22 1
  25        6       23 1
  26        9       24 1
  27       15       25 1
  28       15       26 1
  29       15       27 1
  30       16       28 1
  31       16       29 1
  32       17       30 1
  33       17       31 1
  34       18       32 1
  35       18       33 1

@<TRIPOS>MOLECULE

  33   35
SMALL
USER_CHARGES
@<TRIPOS>ATOM
   1 C1           0.8360     3.5114     0.9996 C.3          1    LIG   0.0000
   2 C2           2.3563     3.5038     1.0000 C.2          1    LIG   0.0000
   3 N3           3.0667     4.6197     1.0014 N.2          1    LIG   0.0000
   4 C4           4.4391     4.6114     1.0023 C.2          1    LIG   0.0000
   5 C5           5.3892     5.5893     1.0046 C.2          1    LIG   0.0000
   6 C6           6.6465     4.9439     1.0047 C.2          1    LIG   0.0000
   7 N7           6.4138     3.6528     1.0022 N.2          1    LIG   0.0000
   8 N8           5.1126     3.4338     1.0004 N.pl3        1    LIG   0.0000
   9 C9           4.4046     2.2631     0.9996 C.2          1    LIG   0.0000
  10 C10          3.0350     2.2557     1.0000 C.2          1    LIG   0.0000
  11 C11          2.3100     1.0000     1.0000 C.2          1    LIG   0.0000
  12 O12          2.9100    -0.0392     1.0000 O.2          1    LIG   0.0000
  13 O13          1.0000     1.0000     1.0000 O.3          1    LIG   0.0000
  14 C14          0.3870    -0.2851     1.0000 C.3          1    LIG   0.0000
  15 C15          0.5529    -0.9937    -0.3390 C.3          1    LIG   0.0000
  16 C16          0.7594    -1.1215     2.2058 C.3          1    LIG   0.0000
  17 C17         -0.6709    -1.6122     2.2137 C.3          1    LIG   0.0000
  18 C18         -1.0032    -0.2780     1.5909 C.3          1    LIG   0.0000
  19 H            0.4979     2.5703     0.9985 H            1    LIG   0.0000
  20 H            0.5048     3.9836     1.8166 H            1    LIG   0.0000
  21 H            0.5053     3.9854     0.1836 H            1    LIG   0.0000
  22 H            5.2271     6.5761     1.0059 H            1    LIG   0.0000
  23 H            7.5429     5.3871     1.0063 H            1    LIG   0.0000
  24 H            4.8981     1.3934     0.9988 H            1    LIG   0.0000
  25 H            0.1106    -1.8896    -0.2991 H            1    LIG   0.0000
  26 H            0.1307    -0.4453    -1.0609 H            1    LIG   0.0000
  27 H            1.5264    -1.1110    -0.5357 H            1    LIG   0.0000
  28 H            1.0255    -0.5955     3.0135 H            1    LIG   0.0000
  29 H            1.4432    -1.8293     2.0287 H            1    LIG   0.0000
  30 H           -1.0618    -1.7660     3.1212 H            1    LIG   0.0000
  31 H           -0.8501    -2.4074     1.6345 H            1    LIG   0.0000
  32 H           -1.7428    -0.3040     0.9182 H            1    LIG   0.0000
  33 H           -1.1745     0.4576     2.2463 H            1    LIG   0.0000
@<TRIPOS>BOND
   1        1        2 1
   2        2        3 2
   3        3        4 1
   4        4        5 2
   5        5        6 1
   6        6        7 2
   7        7        8 1
   8        8        4 1
   9        8        9 1
  10        9       10 2
  11       10        2 1
  12       10       11 1
  13       11       12 2
  14       11       13 1
  15       13       14 1
  16       14       15 1
  17       14       16 1
  18       16       17 1
  19       17       18 1
  20       18       14 1
  21        1       19 1
  22        1       20 1
  23        1       21 1
  24        5       22 1
  25        6       23 1
  26        9       24 1
  27       15       25 1
  28       15       26 1
  29       15       27 1
  30       16       28 1
  31       16       29 1
  32       17       30 1
  33       17       31 1
  34       18       32 1
  35       18       33 1

@<TRIPOS>MOLECULE

  33   35
SMALL
USER_CHARGES
@<TRIPOS>ATOM
   1 C1           0.8360     3.5114     0.9996 C.3          1    LIG   0.0000
   2 C2           2.3563     3.5038     1.0000 C.2          1    LIG   0.0000
   3 N3           3.0667     4.6197     1.0014 N.2          1    LIG   0.0000
   4 C4           4.4391     4.6114     1.0023 C.2          1    LIG   0.0000
   5 C5           5.3892     5.5893     1.0046 C.2          1    LIG   0.0000
   6 C6           6.6465     4.9439     1.0047 C.2          1    LIG   0.0000
   7 N7           6.4138     3.6528     1.0022 N.2          1    LIG   0.0000
   8 N8           5.1126     3.4338     1.0004 N.pl3        1    LIG   0.0000
   9 C9           4.4046     2.2631     0.9996 C.2          1    LIG   0.0000
  10 C10          3.0350     2.2557     1.0000 C.2          1    LIG   0.0000
  11 C11          2.3100     1.0000     1.0000 C.2          1    LIG   0.0000
  12 O12          2.9100    -0.0392     1.0000 O.2          1    LIG   0.0000
  13 O13          1.0000     1.0000     1.0000 O.3          1    LIG   0.0000
  14 C14          0.3878    -0.2835     1.0000 C.3          1    LIG   0.0000
  15 C15          0.5373    -0.9502     2.3559 C.3          1    LIG   0.0000
  16 C16          0.7746    -1.1028    -0.2155 C.3          1    LIG   0.0000
  17 C17         -0.6433    -1.6226    -0.1981 C.3          1    LIG   0.0000
  18 C18         -1.0164    -0.3077     0.4363 C.3          1    LIG   0.0000
  19 H            0.4979     2.5703     0.9985 H            1    LIG   0.0000
  20 H            0.5048     3.9836     1.8166 H            1    LIG   0.0000
  21 H            0.5053     3.9854     0.1836 H            1    LIG   0.0000
  22 H            5.2271     6.5761     1.0059 H            1    LIG   0.0000
  23 H            7.5429     5.3871     1.0063 H            1    LIG   0.0000
  24 H            4.8981     1.3934     0.9988 H            1    LIG   0.0000
  25 H            0.1010    -1.8498     2.3350 H            1    LIG   0.0000
  26 H            1.5084    -1.0556     2.5702 H            1    LIG   0.0000
  27 H            0.1010    -0.3844     3.0555 H            1    LIG   0.0000
  28 H            1.4783    -1.7939    -0.0507 H            1    LIG   0.0000
  29 H            1.0165    -0.5671    -1.0245 H            1    LIG   0.0000
  30 H           -0.7902    -2.4254     0.3798 H            1    LIG   0.0000
  31 H           -1.0438    -1.7834    -1.1001 H            1    LIG   0.0000
  32 H           -1.2223     0.4271    -0.2100 H            1    LIG   0.0000
  33 H           -1.7431    -0.3627     1.1210 H            1    LIG   0.0000
@<TRIPOS>BOND
   1        1        2 1
   2        2        3 2
   3        3        4 1
   4        4        5 2
   5        5        6 1
   6        6        7 2
   7        7        8 1
   8        8        4 1
   9        8        9 1
  10        9       10 2
  11       10        2 1
  12       10       11 1
  13       11       12 2
  14       11       13 1
  15       13       14 1
  16       14       15 1
  17       14       16 1
  18       16       17 1
  19       17       18 1
  20       18       14 1
  21        1       19 1
  22        1       20 1
  23        1       21 1
  24        5       22 1
  25        6       23 1
  26        9       24 1
  27       15       25 1
  28       15       26 1
  29       15       27 1
  30       16       28 1
  31       16       29 1
  32       17       30 1
  33       17       31 1
  34       18       32 1
  35       18       33 1

@<TRIPOS>MOLECULE

  33   35
SMALL
USER_CHARGES
@<TRIPOS>ATOM
   1 C1           0.8360     3.5114     0.9996 C.3          1    LIG   0.0000
   2 C2           2.3563     3.5038     1.0000 C.2          1    LIG   0.0000
   3 N3           3.0667     4.6197     1.0014 N.2          1    LIG   0.0000
   4 C4           4.4391     4.6114     1.0023 C.2          1    LIG   0.0000
   5 C5           5.3892     5.5893     1.0046 C.2          1    LIG   0.0000
   6 C6           6.6465     4.9439     1.0047 C.2          1    LIG   0.0000
   7 N7           6.4138     3.6528     1.0022 N.2          1    LIG   0.0000
   8 N8           5.1126     3.4338     1.0004 N.pl3        1    LIG   0.0000
   9 C9           4.4046     2.2631     0.9996 C.2          1    LIG   0.0000
  10 C10          3.0350     2.2557     1.0000 C.2          1    LIG   0.0000
  11 C11          2.3100     1.0000     1.0000 C.2          1    LIG   0.0000
  12 O12          2.9100    -0.0392     1.0000 O.2          1    LIG   0.0000
  13 O13          1.0000     1.0000     1.0000 O.3          1    LIG   0.0000
  14 C14          0.3887    -0.2816     1.0000 C.3          1    LIG   0.0000
  15 C15         -1.1080    -0.2119     1.2356 C.3          1    LIG   0.0000
  16 C16          0.7452    -1.1349    -0.1935 C.3          1    LIG   0.0000
  17 C17          1.4782    -2.1063     0.7037 C.3          1    LIG   0.0000
  18 C18          1.0677    -1.2840     1.9066 C.3          1    LIG   0.0000
  19 H            0.4979     2.5703     0.9985 H            1    LIG   0.0000
  20 H            0.5048     3.9836     1.8166 H            1    LIG   0.0000
  21 H            0.5053     3.9854     0.1836 H            1    LIG   0.0000
  22 H            5.2271     6.5761     1.0059 H            1    LIG   0.0000
  23 H            7.5429     5.3871     1.0063 H            1    LIG   0.0000
  24 H            4.8981     1.3934     0.9988 H            1    LIG   0.0000
  25 H           -1.4903    -1.1359     1.2266 H            1    LIG   0.0000
  26 H           -1.2864     0.2140     2.1226 H            1    LIG   0.0000
  27 H           -1.5342     0.3322     0.5129 H            1    LIG   0.0000
  28 H            1.3317    -0.6759    -0.8608 H            1    LIG   0.0000
  29 H           -0.0454    -1.5306    -0.6610 H            1    LIG   0.0000
  30 H            2.4655    -2.1422     0.5491 H            1    LIG   0.0000
  31 H            1.1055    -3.0342     0.6946 H            1    LIG   0.0000
  32 H            0.4446    -1.7569     2.5296 H            1    LIG   0.0000
  33 H            1.8362    -0.9090     2.4250 H            1    LIG   0.0000
@<TRIPOS>BOND
   1        1        2 1
   2        2        3 2
   3        3        4 1
   4        4        5 2
   5        5        6 1
   6        6        7 2
   7        7        8 1
   8        8        4 1
   9        8        9 1
  10        9       10 2
  11       10        2 1
  12       10       11 1
  13       11       12 2
  14       11       13 1
  15       13       14 1
  16       14       15 1
  17       14       16 1
  18       16       17 1
  19       17       18 1
  20       18       14 1
  21        1       19 1
  22        1       20 1
  23        1       21 1
  24        5       22 1
  25        6       23 1
  26        9       24 1
  27       15       25 1
  28       15       26 1
  29       15       27 1
  30       16       28 1
  31       16       29 1
  32       17       30 1
  33       17       31 1
  34       18       32 1
  35       18       33 1

@<TRIPOS>MOLECULE

  33   35
SMALL
USER_CHARGES
@<TRIPOS>ATOM
   1 C1           1.9328     3.6291    -0.1939 C.3          1    LIG   0.0000
   2 C2           2.8810     3.4381     0.9790 C.2          1    LIG   0.0000
   3 N3           3.5656     4.4418     1.5024 N.2          1    LIG   0.0000
   4 C4           4.4209     4.2681     2.5617 C.2          1    LIG   0.0000
   5 C5           5.2246     5.1083     3.2737 C.2          1    LIG   0.0000
   6 C6           5.8707     4.3266     4.2580 C.2          1    LIG   0.0000
   7 N7           5.4475     3.0940     4.1063 N.2          1    LIG   0.0000
   8 N8           4.5882     3.0372     3.1066 N.pl3        1    LIG   0.0000
   9 C9           3.8929     1.9798     2.5866 C.2          1    LIG   0.0000
  10 C10          3.0350     2.1380     1.5307 C.2          1    LIG   0.0000
  11 C11          2.3100     1.0000     1.0000 C.2          1    LIG   0.0000
  12 O12          2.9100     0.0581     0.5608 O.2          1    LIG   0.0000
  13 O13          1.0000     1.0000     1.0000 O.3          1    LIG   0.0000
  14 C14          0.3887    -0.2816     1.0000 C.3          1    LIG   0.0000
  15 C15          0.5775    -1.0158    -0.3137 C.3          1    LIG   0.0000
  16 C16          0.7452    -1.1349     2.1935 C.3          1    LIG   0.0000
  17 C17         -0.6851    -1.0745     2.6801 C.3          1    LIG   0.0000
  18 C18         -1.0550    -0.2716     1.4511 C.3          1    LIG   0.0000
  19 H            1.5185     2.7512    -0.4340 H            1    LIG   0.0000
  20 H            1.2153     4.2779     0.0597 H            1    LIG   0.0000
  21 H            2.4407     3.9838    -0.9789 H            1    LIG   0.0000
  22 H            5.3360     6.0912     3.1272 H            1    LIG   0.0000
  23 H            6.5256     4.6512     4.9404 H            1    LIG   0.0000
  24 H            4.0137     1.0712     2.9864 H            1    LIG   0.0000
  25 H            0.1308    -1.9091    -0.2635 H            1    LIG   0.0000
  26 H            0.1719    -0.4816    -1.0554 H            1    LIG   0.0000
  27 H            1.5541    -1.1408    -0.4884 H            1    LIG   0.0000
  28 H            1.4041    -0.7104     2.8145 H            1    LIG   0.0000
  29 H            1.0555    -2.0556     1.9569 H            1    LIG   0.0000
  30 H           -0.8044    -0.5825     3.5425 H            1    LIG   0.0000
  31 H           -1.1361    -1.9650     2.7392 H            1    LIG   0.0000
  32 H           -1.6793    -0.7439     0.8289 H            1    LIG   0.0000
  33 H           -1.4122     0.6404     1.6529 H            1    LIG   0.0000
@<TRIPOS>BOND
   1        1        2 1
   2        2        3 2
   3        3        4 1
   4        4        5 2
   5        5        6 1
   6        6        7 2
   7        7        8 1
   8        8        4 1
   9        8        9 1
  10        9       10 2
  11       10        2 1
  12       10       11 1
  13       11       12 2
  14       11       13 1
  15       13       14 1
  16       14       15 1
  17       14       16 1
  18       16       17 1
  19       17       18 1
  20       18       14 1
  21        1       19 1
  22        1       20 1
  23        1       21 1
  24        5       22 1
  25        6       23 1
  26        9       24 1
  27       15       25 1
  28       15       26 1
  29       15       27 1
  30       16       28 1
  31       16       29 1
  32       17       30 1
  33       17       31 1
  34       18       32 1
  35       18       33 1

@<TRIPOS>MOLECULE

  33   35
SMALL
USER_CHARGES
@<TRIPOS>ATOM
   1 C1           1.9322     3.6292     2.1934 C.3          1    LIG   0.0000
   2 C2           2.8810     3.4381     1.0210 C.2          1    LIG   0.0000
   3 N3           3.5677     4.4413     0.4993 N.2          1    LIG   0.0000
   4 C4           4.4243     4.2673    -0.5588 C.2          1    LIG   0.0000
   5 C5           5.2315     5.1066    -1.2679 C.2          1    LIG   0.0000
   6 C6           5.8777     4.3249    -2.2521 C.2          1    LIG   0.0000
   7 N7           5.4508     3.0932    -2.1034 N.2          1    LIG   0.0000
   8 N8           4.5889     3.0370    -1.1060 N.pl3        1    LIG   0.0000
   9 C9           3.8923     1.9800    -0.5870 C.2          1    LIG   0.0000
  10 C10          3.0350     2.1380     0.4693 C.2          1    LIG   0.0000
  11 C11          2.3100     1.0000     1.0000 C.2          1    LIG   0.0000
  12 O12          2.9100     0.0581     1.4392 O.2          1    LIG   0.0000
  13 O13          1.0000     1.0000     1.0000 O.3          1    LIG   0.0000
  14 C14          0.3878    -0.2835     1.0000 C.3          1    LIG   0.0000
  15 C15          1.0259    -1.1832    -0.0434 C.3          1    LIG   0.0000
  16 C16         -1.1257    -0.1964     1.0000 C.3          1    LIG   0.0000
  17 C17         -1.1003    -1.4046     1.9057 C.3          1    LIG   0.0000
  18 C18          0.2448    -0.9092     2.3704 C.3          1    LIG   0.0000
  19 H            1.5163     2.7517     2.4322 H            1    LIG   0.0000
  20 H            2.4402     3.9821     2.9792 H            1    LIG   0.0000
  21 H            1.2161     4.2796     1.9401 H            1    LIG   0.0000
  22 H            5.3449     6.0890    -1.1197 H            1    LIG   0.0000
  23 H            6.5351     4.6489    -2.9324 H            1    LIG   0.0000
  24 H            4.0118     1.0717    -0.9879 H            1    LIG   0.0000
  25 H            0.5820    -2.0792    -0.0273 H            1    LIG   0.0000
  26 H            0.9164    -0.7733    -0.9489 H            1    LIG   0.0000
  27 H            1.9994    -1.2898     0.1588 H            1    LIG   0.0000
  28 H           -1.5559    -0.3467     0.1099 H            1    LIG   0.0000
  29 H           -1.4995     0.6330     1.4151 H            1    LIG   0.0000
  30 H           -1.0839    -2.2853     1.4323 H            1    LIG   0.0000
  31 H           -1.8102    -1.4178     2.6099 H            1    LIG   0.0000
  32 H            0.2136    -0.2578     3.1285 H            1    LIG   0.0000
  33 H            0.9092    -1.6278     2.5756 H            1    LIG   0.0000
@<TRIPOS>BOND
   1        1        2 1
   2        2        3 2
   3        3        4 1
   4        4        5 2
   5        5        6 1
   6        6        7 2
   7        7        8 1
   8        8        4 1
   9        8        9 1
  10        9       10 2
  11       10        2 1
  12       10       11 1
  13       11       12 2
  14       11       13 1
  15       13       14 1
  16       14       15 1
  17       14       16 1
  18       16       17 1
  19       17       18 1
  20       18       14 1
  21        1       19 1
  22        1       20 1
  23        1       21 1
  24        5       22 1
  25        6       23 1
  26        9       24 1
  27       15       25 1
  28       15       26 1
  29       15       27 1
  30       16       28 1
  31       16       29 1
  32       17       30 1
  33       17       31 1
  34       18       32 1
  35       18       33 1

@<TRIPOS>MOLECULE

  33   35
SMALL
USER_CHARGES
@<TRIPOS>ATOM
   1 C1           1.9328     1.7754    -1.7815 C.3          1    LIG   0.0000
   2 C2           2.8810     2.5511    -0.8812 C.2          1    LIG   0.0000
   3 N3           3.5656     3.5973    -1.3136 N.2          1    LIG   0.0000
   4 C4           4.4209     4.2970    -0.4997 C.2          1    LIG   0.0000
   5 C5           5.2246     5.3825    -0.6856 C.2          1    LIG   0.0000
   6 C6           5.8707     5.6341     0.5459 C.2          1    LIG   0.0000
   7 N7           5.4475     4.7256     1.3925 N.2          1    LIG   0.0000
   8 N8           4.5882     3.9232     0.7935 N.pl3        1    LIG   0.0000
   9 C9           3.8929     2.8452     1.2692 C.2          1    LIG   0.0000
  10 C10          3.0350     2.1380     0.4693 C.2          1    LIG   0.0000
  11 C11          2.3100     1.0000     1.0000 C.2          1    LIG   0.0000
  12 O12          2.9100     0.0581     1.4392 O.2          1    LIG   0.0000
  13 O13          1.0000     1.0000     1.0000 O.3          1    LIG   0.0000
  14 C14          0.3878    -0.2835     1.0000 C.3          1    LIG   0.0000
  15 C15          1.0259    -1.1832    -0.0434 C.3          1    LIG   0.0000
  16 C16         -1.1257    -0.1964     1.0000 C.3          1    LIG   0.0000
  17 C17         -1.1003    -1.4046     1.9057 C.3          1    LIG   0.0000
  18 C18          0.2448    -0.9092     2.3704 C.3          1    LIG   0.0000
  19 H            1.5185     1.0271    -1.2633 H            1    LIG   0.0000
  20 H            1.2153     2.3867    -2.1155 H            1    LIG   0.0000
  21 H            2.4407     1.4021    -2.5577 H            1    LIG   0.0000
  22 H            5.3360     5.9021    -1.5327 H            1    LIG   0.0000
  23 H            6.5256     6.3654     0.7359 H            1    LIG   0.0000
  24 H            4.0137     2.5674     2.2223 H            1    LIG   0.0000
  25 H            0.5820    -2.0792    -0.0273 H            1    LIG   0.0000
  26 H            0.9164    -0.7733    -0.9489 H            1    LIG   0.0000
  27 H            1.9994    -1.2898     0.1588 H            1    LIG   0.0000
  28 H           -1.5559    -0.3467     0.1099 H            1    LIG   0.0000
  29 H           -1.4995     0.6330     1.4151 H            1    LIG   0.0000
  30 H           -1.0839    -2.2853     1.4323 H            1    LIG   0.0000
  31 H           -1.8102    -1.4178     2.6099 H            1    LIG   0.0000
  32 H            0.2136    -0.2578     3.1285 H            1    LIG   0.0000
  33 H            0.9092    -1.6278     2.5756 H            1    LIG   0.0000
@<TRIPOS>BOND
   1        1        2 1
   2        2        3 2
   3        3        4 1
   4        4        5 2
   5        5        6 1
   6        6        7 2
   7        7        8 1
   8        8        4 1
   9        8        9 1
  10        9       10 2
  11       10        2 1
  12       10       11 1
  13       11       12 2
  14       11       13 1
  15       13       14 1
  16       14       15 1
  17       14       16 1
  18       16       17 1
  19       17       18 1
  20       18       14 1
  21        1       19 1
  22        1       20 1
  23        1       21 1
  24        5       22 1
  25        6       23 1
  26        9       24 1
  27       15       25 1
  28       15       26 1
  29       15       27 1
  30       16       28 1
  31       16       29 1
  32       17       30 1
  33       17       31 1
  34       18       32 1
  35       18       33 1

