@<TRIPOS>MOLECULE
*****
 33 35 0 0 0
SMALL
USER_CHARGES

@<TRIPOS>ATOM
      1 C1          1.9328    3.6291   -0.1939 C.3     1  LIG1        0.0000
      2 C2          2.8810    3.4381    0.9790 C.2     1  LIG1        0.0000
      3 N3          3.5656    4.4418    1.5024 N.2     1  LIG1        0.0000
      4 C4          4.4209    4.2681    2.5617 C.2     1  LIG1        0.0000
      5 C5          5.2246    5.1083    3.2737 C.2     1  LIG1        0.0000
      6 C6          5.8707    4.3266    4.2580 C.2     1  LIG1        0.0000
      7 N7          5.4475    3.0940    4.1063 N.2     1  LIG1        0.0000
      8 N8          4.5882    3.0372    3.1066 N.pl3   1  LIG1        0.0000
      9 C9          3.8929    1.9798    2.5866 C.2     1  LIG1        0.0000
     10 C10         3.0350    2.1380    1.5307 C.2     1  LIG1        0.0000
     11 C11         2.3100    1.0000    1.0000 C.2     1  LIG1        0.0000
     12 O12         2.9100    0.0581    0.5608 O.2     1  LIG1        0.0000
     13 O13         1.0000    1.0000    1.0000 O.3     1  LIG1        0.0000
     14 C14         0.3887   -0.2816    1.0000 C.3     1  LIG1        0.0000
     15 C15         0.5775   -1.0158   -0.3137 C.3     1  LIG1        0.0000
     16 C16         0.7452   -1.1349    2.1935 C.3     1  LIG1        0.0000
     17 C17        -0.6851   -1.0745    2.6801 C.3     1  LIG1        0.0000
     18 C18        -1.0550   -0.2716    1.4511 C.3     1  LIG1        0.0000
     19 H           1.5185    2.7512   -0.4340 H       1  LIG1        0.0000
     20 H           1.2153    4.2779    0.0597 H       1  LIG1        0.0000
     21 H           2.4407    3.9838   -0.9789 H       1  LIG1        0.0000
     22 H           5.3360    6.0912    3.1272 H       1  LIG1        0.0000
     23 H           6.5256    4.6512    4.9404 H       1  LIG1        0.0000
     24 H           4.0137    1.0712    2.9864 H       1  LIG1        0.0000
     25 H           0.1308   -1.9091   -0.2635 H       1  LIG1        0.0000
     26 H           0.1719   -0.4816   -1.0554 H       1  LIG1        0.0000
     27 H           1.5541   -1.1408   -0.4884 H       1  LIG1        0.0000
     28 H           1.4041   -0.7104    2.8145 H       1  LIG1        0.0000
     29 H           1.0555   -2.0556    1.9569 H       1  LIG1        0.0000
     30 H          -0.8044   -0.5825    3.5425 H       1  LIG1        0.0000
     31 H          -1.1361   -1.9650    2.7392 H       1  LIG1        0.0000
     32 H          -1.6793   -0.7439    0.8289 H       1  LIG1        0.0000
     33 H          -1.4122    0.6404    1.6529 H       1  LIG1        0.0000
@<TRIPOS>BOND
     1     1     2    1
     2     2     3    2
     3     3     4    1
     4     4     5    2
     5     5     6    1
     6     6     7    2
     7     7     8    1
     8     8     4    1
     9     8     9    1
    10     9    10    2
    11    10     2    1
    12    10    11    1
    13    11    12    2
    14    11    13    1
    15    13    14    1
    16    14    15    1
    17    14    16    1
    18    16    17    1
    19    17    18    1
    20    18    14    1
    21     1    19    1
    22     1    20    1
    23     1    21    1
    24     5    22    1
    25     6    23    1
    26     9    24    1
    27    15    25    1
    28    15    26    1
    29    15    27    1
    30    16    28    1
    31    16    29    1
    32    17    30    1
    33    17    31    1
    34    18    32    1
    35    18    33    1
