@<TRIPOS>MOLECULE
*****
 33 35 0 0 0
SMALL
USER_CHARGES

@<TRIPOS>ATOM
      1 C1          0.8360    3.5114    0.9996 C.3     1  LIG1        0.0000
      2 C2          2.3563    3.5038    1.0000 C.2     1  LIG1        0.0000
      3 N3          3.0667    4.6197    1.0014 N.2     1  LIG1        0.0000
      4 C4          4.4391    4.6114    1.0023 C.2     1  LIG1        0.0000
      5 C5          5.3892    5.5893    1.0046 C.2     1  LIG1        0.0000
      6 C6          6.6465    4.9439    1.0047 C.2     1  LIG1        0.0000
      7 N7          6.4138    3.6528    1.0022 N.2     1  LIG1        0.0000
      8 N8          5.1126    3.4338    1.0004 N.pl3   1  LIG1        0.0000
      9 C9          4.4046    2.2631    0.9996 C.2     1  LIG1        0.0000
     10 C10         3.0350    2.2557    1.0000 C.2     1  LIG1        0.0000
     11 C11         2.3100    1.0000    1.0000 C.2     1  LIG1        0.0000
     12 O12         2.9100   -0.0392    1.0000 O.2     1  LIG1        0.0000
     13 O13         1.0000    1.0000    1.0000 O.3     1  LIG1        0.0000
     14 C14         0.3887   -0.2816    1.0000 C.3     1  LIG1        0.0000
     15 C15        -1.1080   -0.2119    1.2356 C.3     1  LIG1        0.0000
     16 C16         0.7452   -1.1349   -0.1935 C.3     1  LIG1        0.0000
     17 C17         1.4782   -2.1063    0.7037 C.3     1  LIG1        0.0000
     18 C18         1.0677   -1.2840    1.9066 C.3     1  LIG1        0.0000
     19 H           0.4979    2.5703    0.9985 H       1  LIG1        0.0000
     20 H           0.5048    3.9836    1.8166 H       1  LIG1        0.0000
     21 H           0.5053    3.9854    0.1836 H       1  LIG1        0.0000
     22 H           5.2271    6.5761    1.0059 H       1  LIG1        0.0000
     23 H           7.5429    5.3871    1.0063 H       1  LIG1        0.0000
     24 H           4.8981    1.3934    0.9988 H       1  LIG1        0.0000
     25 H          -1.4903   -1.1359    1.2266 H       1  LIG1        0.0000
     26 H          -1.2864    0.2140    2.1226 H       1  LIG1        0.0000
     27 H          -1.5342    0.3322    0.5129 H       1  LIG1        0.0000
     28 H           1.3317   -0.6759   -0.8608 H       1  LIG1        0.0000
     29 H          -0.0454   -1.5306   -0.6610 H       1  LIG1        0.0000
     30 H           2.4655   -2.1422    0.5491 H       1  LIG1        0.0000
     31 H           1.1055   -3.0342    0.6946 H       1  LIG1        0.0000
     32 H           0.4446   -1.7569    2.5296 H       1  LIG1        0.0000
     33 H           1.8362   -0.9090    2.4250 H       1  LIG1        0.0000
@<TRIPOS>BOND
     1     1     2    1
     2     2     3    2
     3     3     4    1
     4     4     5    2
     5     5     6    1
     6     6     7    2
     7     7     8    1
     8     8     4    1
     9     8     9    1
    10     9    10    2
    11    10     2    1
    12    10    11    1
    13    11    12    2
    14    11    13    1
    15    13    14    1
    16    14    15    1
    17    14    16    1
    18    16    17    1
    19    17    18    1
    20    18    14    1
    21     1    19    1
    22     1    20    1
    23     1    21    1
    24     5    22    1
    25     6    23    1
    26     9    24    1
    27    15    25    1
    28    15    26    1
    29    15    27    1
    30    16    28    1
    31    16    29    1
    32    17    30    1
    33    17    31    1
    34    18    32    1
    35    18    33    1
