@<TRIPOS>MOLECULE
*****
 33 35 0 0 0
SMALL
USER_CHARGES

@<TRIPOS>ATOM
      1 C1          4.1252    1.6124    3.1932 C.3     1  LIG1        0.0000
      2 C2          3.9305    2.5949    2.0495 C.2     1  LIG1        0.0000
      3 N3          4.5676    3.7532    1.9992 N.2     1  LIG1        0.0000
      4 C4          4.3912    4.6390    0.9658 C.2     1  LIG1        0.0000
      5 C5          4.9094    5.8663    0.6756 C.2     1  LIG1        0.0000
      6 C6          4.3331    6.2795   -0.5469 C.2     1  LIG1        0.0000
      7 N7          3.5217    5.3225   -0.9302 N.2     1  LIG1        0.0000
      8 N8          3.5408    4.3413   -0.0483 N.pl3   1  LIG1        0.0000
      9 C9          2.8683    3.1501   -0.0238 C.2     1  LIG1        0.0000
     10 C10         3.0350    2.2557    1.0000 C.2     1  LIG1        0.0000
     11 C11         2.3100    1.0000    1.0000 C.2     1  LIG1        0.0000
     12 O12         2.9100   -0.0392    1.0000 O.2     1  LIG1        0.0000
     13 O13         1.0000    1.0000    1.0000 O.3     1  LIG1        0.0000
     14 C14         0.3878   -0.2835    1.0000 C.3     1  LIG1        0.0000
     15 C15         0.5373   -0.9502    2.3559 C.3     1  LIG1        0.0000
     16 C16         0.7746   -1.1028   -0.2155 C.3     1  LIG1        0.0000
     17 C17        -0.6433   -1.6226   -0.1981 C.3     1  LIG1        0.0000
     18 C18        -1.0164   -0.3077    0.4363 C.3     1  LIG1        0.0000
     19 H           3.5554    0.8051    3.0398 H       1  LIG1        0.0000
     20 H           5.0860    1.3387    3.2375 H       1  LIG1        0.0000
     21 H           3.8623    2.0472    4.0545 H       1  LIG1        0.0000
     22 H           5.5716    6.3772    1.2237 H       1  LIG1        0.0000
     23 H           4.5101    7.1380   -1.0282 H       1  LIG1        0.0000
     24 H           2.2411    2.9274   -0.7702 H       1  LIG1        0.0000
     25 H           0.1010   -1.8498    2.3350 H       1  LIG1        0.0000
     26 H           1.5084   -1.0556    2.5702 H       1  LIG1        0.0000
     27 H           0.1010   -0.3844    3.0555 H       1  LIG1        0.0000
     28 H           1.4783   -1.7939   -0.0507 H       1  LIG1        0.0000
     29 H           1.0165   -0.5671   -1.0245 H       1  LIG1        0.0000
     30 H          -0.7902   -2.4254    0.3798 H       1  LIG1        0.0000
     31 H          -1.0438   -1.7834   -1.1001 H       1  LIG1        0.0000
     32 H          -1.2223    0.4271   -0.2100 H       1  LIG1        0.0000
     33 H          -1.7431   -0.3627    1.1210 H       1  LIG1        0.0000
@<TRIPOS>BOND
     1     1     2    1
     2     2     3    2
     3     3     4    1
     4     4     5    2
     5     5     6    1
     6     6     7    2
     7     7     8    1
     8     8     4    1
     9     8     9    1
    10     9    10    2
    11    10     2    1
    12    10    11    1
    13    11    12    2
    14    11    13    1
    15    13    14    1
    16    14    15    1
    17    14    16    1
    18    16    17    1
    19    17    18    1
    20    18    14    1
    21     1    19    1
    22     1    20    1
    23     1    21    1
    24     5    22    1
    25     6    23    1
    26     9    24    1
    27    15    25    1
    28    15    26    1
    29    15    27    1
    30    16    28    1
    31    16    29    1
    32    17    30    1
    33    17    31    1
    34    18    32    1
    35    18    33    1
