@<TRIPOS>MOLECULE
*****
 33 35 0 0 0
SMALL
USER_CHARGES

@<TRIPOS>ATOM
      1 C1          4.1258    1.6121   -1.1928 C.3     1  LIG1        0.0000
      2 C2          3.9305    2.5949   -0.0495 C.2     1  LIG1        0.0000
      3 N3          4.5655    3.7544   -0.0006 N.2     1  LIG1        0.0000
      4 C4          4.3878    4.6410    1.0319 C.2     1  LIG1        0.0000
      5 C5          4.9025    5.8702    1.3199 C.2     1  LIG1        0.0000
      6 C6          4.3261    6.2836    2.5422 C.2     1  LIG1        0.0000
      7 N7          3.5184    5.3244    2.9280 N.2     1  LIG1        0.0000
      8 N8          3.5402    4.3417    2.0478 N.pl3   1  LIG1        0.0000
      9 C9          2.8688    3.1498    2.0242 C.2     1  LIG1        0.0000
     10 C10         3.0350    2.2557    1.0000 C.2     1  LIG1        0.0000
     11 C11         2.3100    1.0000    1.0000 C.2     1  LIG1        0.0000
     12 O12         2.9100   -0.0392    1.0000 O.2     1  LIG1        0.0000
     13 O13         1.0000    1.0000    1.0000 O.3     1  LIG1        0.0000
     14 C14         0.3870   -0.2851    1.0000 C.3     1  LIG1        0.0000
     15 C15         0.5529   -0.9937   -0.3390 C.3     1  LIG1        0.0000
     16 C16         0.7594   -1.1215    2.2058 C.3     1  LIG1        0.0000
     17 C17        -0.6709   -1.6122    2.2137 C.3     1  LIG1        0.0000
     18 C18        -1.0032   -0.2780    1.5909 C.3     1  LIG1        0.0000
     19 H           3.5576    0.8038   -1.0383 H       1  LIG1        0.0000
     20 H           3.8612    2.0459   -2.0541 H       1  LIG1        0.0000
     21 H           5.0870    1.3401   -1.2381 H       1  LIG1        0.0000
     22 H           5.5627    6.3823    0.7703 H       1  LIG1        0.0000
     23 H           4.5006    7.1435    3.0219 H       1  LIG1        0.0000
     24 H           2.2429    2.9264    2.7714 H       1  LIG1        0.0000
     25 H           0.1106   -1.8896   -0.2991 H       1  LIG1        0.0000
     26 H           0.1307   -0.4453   -1.0609 H       1  LIG1        0.0000
     27 H           1.5264   -1.1110   -0.5357 H       1  LIG1        0.0000
     28 H           1.0255   -0.5955    3.0135 H       1  LIG1        0.0000
     29 H           1.4432   -1.8293    2.0287 H       1  LIG1        0.0000
     30 H          -1.0618   -1.7660    3.1212 H       1  LIG1        0.0000
     31 H          -0.8501   -2.4074    1.6345 H       1  LIG1        0.0000
     32 H          -1.7428   -0.3040    0.9182 H       1  LIG1        0.0000
     33 H          -1.1745    0.4576    2.2463 H       1  LIG1        0.0000
@<TRIPOS>BOND
     1     1     2    1
     2     2     3    2
     3     3     4    1
     4     4     5    2
     5     5     6    1
     6     6     7    2
     7     7     8    1
     8     8     4    1
     9     8     9    1
    10     9    10    2
    11    10     2    1
    12    10    11    1
    13    11    12    2
    14    11    13    1
    15    13    14    1
    16    14    15    1
    17    14    16    1
    18    16    17    1
    19    17    18    1
    20    18    14    1
    21     1    19    1
    22     1    20    1
    23     1    21    1
    24     5    22    1
    25     6    23    1
    26     9    24    1
    27    15    25    1
    28    15    26    1
    29    15    27    1
    30    16    28    1
    31    16    29    1
    32    17    30    1
    33    17    31    1
    34    18    32    1
    35    18    33    1
