@<TRIPOS>MOLECULE
*****
 33 35 0 0 0
SMALL
USER_CHARGES

@<TRIPOS>ATOM
      1 C1          0.8360    3.5114    0.9996 C.3     1  LIG1        0.0000
      2 C2          2.3563    3.5038    1.0000 C.2     1  LIG1        0.0000
      3 N3          3.0667    4.6197    1.0014 N.2     1  LIG1        0.0000
      4 C4          4.4391    4.6114    1.0023 C.2     1  LIG1        0.0000
      5 C5          5.3892    5.5893    1.0046 C.2     1  LIG1        0.0000
      6 C6          6.6465    4.9439    1.0047 C.2     1  LIG1        0.0000
      7 N7          6.4138    3.6528    1.0022 N.2     1  LIG1        0.0000
      8 N8          5.1126    3.4338    1.0004 N.pl3   1  LIG1        0.0000
      9 C9          4.4046    2.2631    0.9996 C.2     1  LIG1        0.0000
     10 C10         3.0350    2.2557    1.0000 C.2     1  LIG1        0.0000
     11 C11         2.3100    1.0000    1.0000 C.2     1  LIG1        0.0000
     12 O12         2.9100   -0.0392    1.0000 O.2     1  LIG1        0.0000
     13 O13         1.0000    1.0000    1.0000 O.3     1  LIG1        0.0000
     14 C14         0.3878   -0.2835    1.0000 C.3     1  LIG1        0.0000
     15 C15         0.5373   -0.9502    2.3559 C.3     1  LIG1        0.0000
     16 C16         0.7746   -1.1028   -0.2155 C.3     1  LIG1        0.0000
     17 C17        -0.6433   -1.6226   -0.1981 C.3     1  LIG1        0.0000
     18 C18        -1.0164   -0.3077    0.4363 C.3     1  LIG1        0.0000
     19 H           0.4979    2.5703    0.9985 H       1  LIG1        0.0000
     20 H           0.5048    3.9836    1.8166 H       1  LIG1        0.0000
     21 H           0.5053    3.9854    0.1836 H       1  LIG1        0.0000
     22 H           5.2271    6.5761    1.0059 H       1  LIG1        0.0000
     23 H           7.5429    5.3871    1.0063 H       1  LIG1        0.0000
     24 H           4.8981    1.3934    0.9988 H       1  LIG1        0.0000
     25 H           0.1010   -1.8498    2.3350 H       1  LIG1        0.0000
     26 H           1.5084   -1.0556    2.5702 H       1  LIG1        0.0000
     27 H           0.1010   -0.3844    3.0555 H       1  LIG1        0.0000
     28 H           1.4783   -1.7939   -0.0507 H       1  LIG1        0.0000
     29 H           1.0165   -0.5671   -1.0245 H       1  LIG1        0.0000
     30 H          -0.7902   -2.4254    0.3798 H       1  LIG1        0.0000
     31 H          -1.0438   -1.7834   -1.1001 H       1  LIG1        0.0000
     32 H          -1.2223    0.4271   -0.2100 H       1  LIG1        0.0000
     33 H          -1.7431   -0.3627    1.1210 H       1  LIG1        0.0000
@<TRIPOS>BOND
     1     1     2    1
     2     2     3    2
     3     3     4    1
     4     4     5    2
     5     5     6    1
     6     6     7    2
     7     7     8    1
     8     8     4    1
     9     8     9    1
    10     9    10    2
    11    10     2    1
    12    10    11    1
    13    11    12    2
    14    11    13    1
    15    13    14    1
    16    14    15    1
    17    14    16    1
    18    16    17    1
    19    17    18    1
    20    18    14    1
    21     1    19    1
    22     1    20    1
    23     1    21    1
    24     5    22    1
    25     6    23    1
    26     9    24    1
    27    15    25    1
    28    15    26    1
    29    15    27    1
    30    16    28    1
    31    16    29    1
    32    17    30    1
    33    17    31    1
    34    18    32    1
    35    18    33    1
