@<TRIPOS>MOLECULE
*****
 33 35 0 0 0
SMALL
USER_CHARGES

@<TRIPOS>ATOM
      1 C1          4.1252    1.6124    3.1932 C.3     1  LIG1        0.0000
      2 C2          3.9305    2.5949    2.0495 C.2     1  LIG1        0.0000
      3 N3          4.5676    3.7532    1.9992 N.2     1  LIG1        0.0000
      4 C4          4.3912    4.6390    0.9658 C.2     1  LIG1        0.0000
      5 C5          4.9094    5.8663    0.6756 C.2     1  LIG1        0.0000
      6 C6          4.3331    6.2795   -0.5469 C.2     1  LIG1        0.0000
      7 N7          3.5217    5.3225   -0.9302 N.2     1  LIG1        0.0000
      8 N8          3.5408    4.3413   -0.0483 N.pl3   1  LIG1        0.0000
      9 C9          2.8683    3.1501   -0.0238 C.2     1  LIG1        0.0000
     10 C10         3.0350    2.2557    1.0000 C.2     1  LIG1        0.0000
     11 C11         2.3100    1.0000    1.0000 C.2     1  LIG1        0.0000
     12 O12         2.9100   -0.0392    1.0000 O.2     1  LIG1        0.0000
     13 O13         1.0000    1.0000    1.0000 O.3     1  LIG1        0.0000
     14 C14         0.3887   -0.2816    1.0000 C.3     1  LIG1        0.0000
     15 C15        -1.1080   -0.2119    1.2356 C.3     1  LIG1        0.0000
     16 C16         0.7452   -1.1349   -0.1935 C.3     1  LIG1        0.0000
     17 C17         1.4782   -2.1063    0.7037 C.3     1  LIG1        0.0000
     18 C18         1.0677   -1.2840    1.9066 C.3     1  LIG1        0.0000
     19 H           3.5554    0.8051    3.0398 H       1  LIG1        0.0000
     20 H           5.0860    1.3387    3.2375 H       1  LIG1        0.0000
     21 H           3.8623    2.0472    4.0545 H       1  LIG1        0.0000
     22 H           5.5716    6.3772    1.2237 H       1  LIG1        0.0000
     23 H           4.5101    7.1380   -1.0282 H       1  LIG1        0.0000
     24 H           2.2411    2.9274   -0.7702 H       1  LIG1        0.0000
     25 H          -1.4903   -1.1359    1.2266 H       1  LIG1        0.0000
     26 H          -1.2864    0.2140    2.1226 H       1  LIG1        0.0000
     27 H          -1.5342    0.3322    0.5129 H       1  LIG1        0.0000
     28 H           1.3317   -0.6759   -0.8608 H       1  LIG1        0.0000
     29 H          -0.0454   -1.5306   -0.6610 H       1  LIG1        0.0000
     30 H           2.4655   -2.1422    0.5491 H       1  LIG1        0.0000
     31 H           1.1055   -3.0342    0.6946 H       1  LIG1        0.0000
     32 H           0.4446   -1.7569    2.5296 H       1  LIG1        0.0000
     33 H           1.8362   -0.9090    2.4250 H       1  LIG1        0.0000
@<TRIPOS>BOND
     1     1     2    1
     2     2     3    2
     3     3     4    1
     4     4     5    2
     5     5     6    1
     6     6     7    2
     7     7     8    1
     8     8     4    1
     9     8     9    1
    10     9    10    2
    11    10     2    1
    12    10    11    1
    13    11    12    2
    14    11    13    1
    15    13    14    1
    16    14    15    1
    17    14    16    1
    18    16    17    1
    19    17    18    1
    20    18    14    1
    21     1    19    1
    22     1    20    1
    23     1    21    1
    24     5    22    1
    25     6    23    1
    26     9    24    1
    27    15    25    1
    28    15    26    1
    29    15    27    1
    30    16    28    1
    31    16    29    1
    32    17    30    1
    33    17    31    1
    34    18    32    1
    35    18    33    1
