@<TRIPOS>MOLECULE
*****
 33 35 0 0 0
SMALL
USER_CHARGES

@<TRIPOS>ATOM
      1 C1          1.9328    1.7754   -1.7815 C.3     1  LIG1        0.0000
      2 C2          2.8810    2.5511   -0.8812 C.2     1  LIG1        0.0000
      3 N3          3.5656    3.5973   -1.3136 N.2     1  LIG1        0.0000
      4 C4          4.4209    4.2970   -0.4997 C.2     1  LIG1        0.0000
      5 C5          5.2246    5.3825   -0.6856 C.2     1  LIG1        0.0000
      6 C6          5.8707    5.6341    0.5459 C.2     1  LIG1        0.0000
      7 N7          5.4475    4.7256    1.3925 N.2     1  LIG1        0.0000
      8 N8          4.5882    3.9232    0.7935 N.pl3   1  LIG1        0.0000
      9 C9          3.8929    2.8452    1.2692 C.2     1  LIG1        0.0000
     10 C10         3.0350    2.1380    0.4693 C.2     1  LIG1        0.0000
     11 C11         2.3100    1.0000    1.0000 C.2     1  LIG1        0.0000
     12 O12         2.9100    0.0581    1.4392 O.2     1  LIG1        0.0000
     13 O13         1.0000    1.0000    1.0000 O.3     1  LIG1        0.0000
     14 C14         0.3878   -0.2835    1.0000 C.3     1  LIG1        0.0000
     15 C15         1.0259   -1.1832   -0.0434 C.3     1  LIG1        0.0000
     16 C16        -1.1257   -0.1964    1.0000 C.3     1  LIG1        0.0000
     17 C17        -1.1003   -1.4046    1.9057 C.3     1  LIG1        0.0000
     18 C18         0.2448   -0.9092    2.3704 C.3     1  LIG1        0.0000
     19 H           1.5185    1.0271   -1.2633 H       1  LIG1        0.0000
     20 H           1.2153    2.3867   -2.1155 H       1  LIG1        0.0000
     21 H           2.4407    1.4021   -2.5577 H       1  LIG1        0.0000
     22 H           5.3360    5.9021   -1.5327 H       1  LIG1        0.0000
     23 H           6.5256    6.3654    0.7359 H       1  LIG1        0.0000
     24 H           4.0137    2.5674    2.2223 H       1  LIG1        0.0000
     25 H           0.5820   -2.0792   -0.0273 H       1  LIG1        0.0000
     26 H           0.9164   -0.7733   -0.9489 H       1  LIG1        0.0000
     27 H           1.9994   -1.2898    0.1588 H       1  LIG1        0.0000
     28 H          -1.5559   -0.3467    0.1099 H       1  LIG1        0.0000
     29 H          -1.4995    0.6330    1.4151 H       1  LIG1        0.0000
     30 H          -1.0839   -2.2853    1.4323 H       1  LIG1        0.0000
     31 H          -1.8102   -1.4178    2.6099 H       1  LIG1        0.0000
     32 H           0.2136   -0.2578    3.1285 H       1  LIG1        0.0000
     33 H           0.9092   -1.6278    2.5756 H       1  LIG1        0.0000
@<TRIPOS>BOND
     1     1     2    1
     2     2     3    2
     3     3     4    1
     4     4     5    2
     5     5     6    1
     6     6     7    2
     7     7     8    1
     8     8     4    1
     9     8     9    1
    10     9    10    2
    11    10     2    1
    12    10    11    1
    13    11    12    2
    14    11    13    1
    15    13    14    1
    16    14    15    1
    17    14    16    1
    18    16    17    1
    19    17    18    1
    20    18    14    1
    21     1    19    1
    22     1    20    1
    23     1    21    1
    24     5    22    1
    25     6    23    1
    26     9    24    1
    27    15    25    1
    28    15    26    1
    29    15    27    1
    30    16    28    1
    31    16    29    1
    32    17    30    1
    33    17    31    1
    34    18    32    1
    35    18    33    1
