@<TRIPOS>MOLECULE

  27   28
SMALL
USER_CHARGES
@<TRIPOS>ATOM
   1 C1           1.2925     1.2925    -0.4626 C.3          1    LIG   0.0000
   2 C2           1.0000     1.0000     1.0000 C.3          1    LIG   0.0000
   3 C3           1.8776     1.8776     1.8776 C.3          1    LIG   0.0000
   4 C4           1.5852     1.5852     3.3393 C.2          1    LIG   0.0000
   5 N5           0.7238     0.7374     3.8482 N.2          1    LIG   0.0000
   6 C6           0.6844     0.7022     5.2156 C.2          1    LIG   0.0000
   7 C7          -0.1858    -0.1627     5.9888 C.ar         1    LIG   0.0000
   8 C8          -1.0538    -1.0296     5.3330 C.ar         1    LIG   0.0000
   9 C9          -1.8854    -1.8551     6.0825 C.ar         1    LIG   0.0000
  10 C10         -1.8434    -1.8085     7.4726 C.ar         1    LIG   0.0000
  11 C11         -0.9720    -0.9387     8.1201 C.ar         1    LIG   0.0000
  12 C12         -0.1373    -0.1091     7.3779 C.ar         1    LIG   0.0000
  13 C13          1.5240     1.5398     5.8837 C.2          1    LIG   0.0000
  14 S14          2.3575     2.3575     4.6426 S.3          1    LIG   0.0000
  15 H            0.7152     0.7152    -1.0400 H            1    LIG   0.0000
  16 H            1.1001     2.2548    -0.6551 H            1    LIG   0.0000
  17 H            2.2548     1.1001    -0.6551 H            1    LIG   0.0000
  18 H            0.0377     1.1925     1.1925 H            1    LIG   0.0000
  19 H            1.1925     0.0377     1.1925 H            1    LIG   0.0000
  20 H            2.8398     1.6851     1.6851 H            1    LIG   0.0000
  21 H            1.6851     2.8398     1.6851 H            1    LIG   0.0000
  22 H           -1.0796    -1.0591     4.3338 H            1    LIG   0.0000
  23 H           -2.5137    -2.4823     5.6221 H            1    LIG   0.0000
  24 H           -2.4424    -2.4032     8.0088 H            1    LIG   0.0000
  25 H           -0.9456    -0.9096     9.1193 H            1    LIG   0.0000
  26 H            0.4905     0.5187     7.8381 H            1    LIG   0.0000
  27 H            1.6275     1.6496     6.8722 H            1    LIG   0.0000
@<TRIPOS>BOND
   1        1        2 1
   2        2        3 1
   3        3        4 1
   4        4        5 2
   5        5        6 1
   6        6        7 1
   7        7        8 ar
   8        8        9 ar
   9        9       10 ar
  10       10       11 ar
  11       11       12 ar
  12       12        7 ar
  13        6       13 2
  14       13       14 1
  15       14        4 1
  16        1       15 1
  17        1       16 1
  18        1       17 1
  19        2       18 1
  20        2       19 1
  21        3       20 1
  22        3       21 1
  23        8       22 1
  24        9       23 1
  25       10       24 1
  26       11       25 1
  27       12       26 1
  28       13       27 1

@<TRIPOS>MOLECULE

  27   28
SMALL
USER_CHARGES
@<TRIPOS>ATOM
   1 C1           1.2925     1.2925    -0.4626 C.3          1    LIG   0.0000
   2 C2           1.0000     1.0000     1.0000 C.3          1    LIG   0.0000
   3 C3           1.8776     1.8776     1.8776 C.3          1    LIG   0.0000
   4 C4           1.5852     1.5852     3.3393 C.2          1    LIG   0.0000
   5 N5           0.7238     0.7374     3.8482 N.2          1    LIG   0.0000
   6 C6           0.6844     0.7022     5.2156 C.2          1    LIG   0.0000
   7 C7          -0.1858    -0.1627     5.9888 C.ar         1    LIG   0.0000
   8 C8          -0.2376    -1.5225     5.7003 C.ar         1    LIG   0.0000
   9 C9          -1.0755    -2.3445     6.4464 C.ar         1    LIG   0.0000
  10 C10         -1.8502    -1.8050     7.4688 C.ar         1    LIG   0.0000
  11 C11         -1.7919    -0.4441     7.7506 C.ar         1    LIG   0.0000
  12 C12         -0.9569     0.3853     7.0087 C.ar         1    LIG   0.0000
  13 C13          1.5240     1.5398     5.8837 C.2          1    LIG   0.0000
  14 S14          2.3575     2.3575     4.6426 S.3          1    LIG   0.0000
  15 H            0.7152     0.7152    -1.0400 H            1    LIG   0.0000
  16 H            1.1001     2.2548    -0.6551 H            1    LIG   0.0000
  17 H            2.2548     1.1001    -0.6551 H            1    LIG   0.0000
  18 H            0.0377     1.1925     1.1925 H            1    LIG   0.0000
  19 H            1.1925     0.0377     1.1925 H            1    LIG   0.0000
  20 H            2.8398     1.6851     1.6851 H            1    LIG   0.0000
  21 H            1.6851     2.8398     1.6851 H            1    LIG   0.0000
  22 H            0.3215    -1.9048     4.9646 H            1    LIG   0.0000
  23 H           -1.1213    -3.3236     6.2481 H            1    LIG   0.0000
  24 H           -2.4517    -2.3986     8.0036 H            1    LIG   0.0000
  25 H           -2.3504    -0.0617     8.4867 H            1    LIG   0.0000
  26 H           -0.9115     1.3645     7.2063 H            1    LIG   0.0000
  27 H            1.6275     1.6496     6.8722 H            1    LIG   0.0000
@<TRIPOS>BOND
   1        1        2 1
   2        2        3 1
   3        3        4 1
   4        4        5 2
   5        5        6 1
   6        6        7 1
   7        7        8 ar
   8        8        9 ar
   9        9       10 ar
  10       10       11 ar
  11       11       12 ar
  12       12        7 ar
  13        6       13 2
  14       13       14 1
  15       14        4 1
  16        1       15 1
  17        1       16 1
  18        1       17 1
  19        2       18 1
  20        2       19 1
  21        3       20 1
  22        3       21 1
  23        8       22 1
  24        9       23 1
  25       10       24 1
  26       11       25 1
  27       12       26 1
  28       13       27 1

@<TRIPOS>MOLECULE

  27   28
SMALL
USER_CHARGES
@<TRIPOS>ATOM
   1 C1           1.2925     1.2925    -0.4626 C.3          1    LIG   0.0000
   2 C2           1.0000     1.0000     1.0000 C.3          1    LIG   0.0000
   3 C3           1.8776     1.8776     1.8776 C.3          1    LIG   0.0000
   4 C4           1.5852     1.5852     3.3393 C.2          1    LIG   0.0000
   5 N5           0.7238     0.7374     3.8482 N.2          1    LIG   0.0000
   6 C6           0.6844     0.7022     5.2156 C.2          1    LIG   0.0000
   7 C7          -0.1858    -0.1627     5.9888 C.ar         1    LIG   0.0000
   8 C8          -1.5449    -0.2107     5.6964 C.ar         1    LIG   0.0000
   9 C9          -2.3723    -1.0425     6.4435 C.ar         1    LIG   0.0000
  10 C10         -1.8387    -1.8153     7.4704 C.ar         1    LIG   0.0000
  11 C11         -0.4782    -1.7612     7.7556 C.ar         1    LIG   0.0000
  12 C12          0.3562    -0.9314     7.0136 C.ar         1    LIG   0.0000
  13 C13          1.5240     1.5398     5.8837 C.2          1    LIG   0.0000
  14 S14          2.3575     2.3575     4.6426 S.3          1    LIG   0.0000
  15 H            0.7152     0.7152    -1.0400 H            1    LIG   0.0000
  16 H            1.1001     2.2548    -0.6551 H            1    LIG   0.0000
  17 H            2.2548     1.1001    -0.6551 H            1    LIG   0.0000
  18 H            0.0377     1.1925     1.1925 H            1    LIG   0.0000
  19 H            1.1925     0.0377     1.1925 H            1    LIG   0.0000
  20 H            2.8398     1.6851     1.6851 H            1    LIG   0.0000
  21 H            1.6851     2.8398     1.6851 H            1    LIG   0.0000
  22 H           -1.9230     0.3467     4.9572 H            1    LIG   0.0000
  23 H           -3.3510    -1.0851     6.2427 H            1    LIG   0.0000
  24 H           -2.4360    -2.4124     8.0057 H            1    LIG   0.0000
  25 H           -0.0999    -2.3191     8.4944 H            1    LIG   0.0000
  26 H            1.3348    -0.8880     7.2148 H            1    LIG   0.0000
  27 H            1.6275     1.6496     6.8722 H            1    LIG   0.0000
@<TRIPOS>BOND
   1        1        2 1
   2        2        3 1
   3        3        4 1
   4        4        5 2
   5        5        6 1
   6        6        7 1
   7        7        8 ar
   8        8        9 ar
   9        9       10 ar
  10       10       11 ar
  11       11       12 ar
  12       12        7 ar
  13        6       13 2
  14       13       14 1
  15       14        4 1
  16        1       15 1
  17        1       16 1
  18        1       17 1
  19        2       18 1
  20        2       19 1
  21        3       20 1
  22        3       21 1
  23        8       22 1
  24        9       23 1
  25       10       24 1
  26       11       25 1
  27       12       26 1
  28       13       27 1

@<TRIPOS>MOLECULE

  27   28
SMALL
USER_CHARGES
@<TRIPOS>ATOM
   1 C1           1.2925     1.2925    -0.4626 C.3          1    LIG   0.0000
   2 C2           1.0000     1.0000     1.0000 C.3          1    LIG   0.0000
   3 C3           1.8776     1.8776     1.8776 C.3          1    LIG   0.0000
   4 C4           1.5852     1.5852     3.3393 C.2          1    LIG   0.0000
   5 N5           2.1316     2.1180     4.4059 N.2          1    LIG   0.0000
   6 C6           1.6590     1.6412     5.5983 C.2          1    LIG   0.0000
   7 C7           2.1143     2.0912     6.8996 C.ar         1    LIG   0.0000
   8 C8           3.0966     3.0725     6.9835 C.ar         1    LIG   0.0000
   9 C9           3.5279     3.4976     8.2357 C.ar         1    LIG   0.0000
  10 C10          2.9776     2.9428     9.3871 C.ar         1    LIG   0.0000
  11 C11          1.9955     1.9621     9.2937 C.ar         1    LIG   0.0000
  12 C12          1.5589     1.5307     8.0451 C.ar         1    LIG   0.0000
  13 C13          0.6962     0.6804     5.5462 C.2          1    LIG   0.0000
  14 S14          0.4447     0.4447     3.8775 S.3          1    LIG   0.0000
  15 H            0.7152     0.7152    -1.0400 H            1    LIG   0.0000
  16 H            1.1001     2.2548    -0.6551 H            1    LIG   0.0000
  17 H            2.2548     1.1001    -0.6551 H            1    LIG   0.0000
  18 H            0.0377     1.1925     1.1925 H            1    LIG   0.0000
  19 H            1.1925     0.0377     1.1925 H            1    LIG   0.0000
  20 H            2.8398     1.6851     1.6851 H            1    LIG   0.0000
  21 H            1.6851     2.8398     1.6851 H            1    LIG   0.0000
  22 H            3.4884     3.4679     6.1528 H            1    LIG   0.0000
  23 H            4.2337     4.2023     8.3085 H            1    LIG   0.0000
  24 H            3.2896     3.2505    10.2859 H            1    LIG   0.0000
  25 H            1.6031     1.5670    10.1244 H            1    LIG   0.0000
  26 H            0.8537     0.8255     7.9720 H            1    LIG   0.0000
  27 H            0.2423     0.2203     6.3093 H            1    LIG   0.0000
@<TRIPOS>BOND
   1        1        2 1
   2        2        3 1
   3        3        4 1
   4        4        5 2
   5        5        6 1
   6        6        7 1
   7        7        8 ar
   8        8        9 ar
   9        9       10 ar
  10       10       11 ar
  11       11       12 ar
  12       12        7 ar
  13        6       13 2
  14       13       14 1
  15       14        4 1
  16        1       15 1
  17        1       16 1
  18        1       17 1
  19        2       18 1
  20        2       19 1
  21        3       20 1
  22        3       21 1
  23        8       22 1
  24        9       23 1
  25       10       24 1
  26       11       25 1
  27       12       26 1
  28       13       27 1

@<TRIPOS>MOLECULE

  27   28
SMALL
USER_CHARGES
@<TRIPOS>ATOM
   1 C1           1.2925     1.2925    -0.4626 C.3          1    LIG   0.0000
   2 C2           1.0000     1.0000     1.0000 C.3          1    LIG   0.0000
   3 C3           1.8776     1.8776     1.8776 C.3          1    LIG   0.0000
   4 C4           1.5852     1.5852     3.3393 C.2          1    LIG   0.0000
   5 N5           2.1316     2.1180     4.4059 N.2          1    LIG   0.0000
   6 C6           1.6590     1.6412     5.5983 C.2          1    LIG   0.0000
   7 C7           2.1143     2.0912     6.8996 C.ar         1    LIG   0.0000
   8 C8           2.1684     3.4533     7.1766 C.ar         1    LIG   0.0000
   9 C9           2.6070     3.8760     8.4270 C.ar         1    LIG   0.0000
  10 C10          2.9856     2.9404     9.3851 C.ar         1    LIG   0.0000
  11 C11          2.9281     1.5802     9.0995 C.ar         1    LIG   0.0000
  12 C12          2.4911     1.1489     7.8510 C.ar         1    LIG   0.0000
  13 C13          0.6962     0.6804     5.5462 C.2          1    LIG   0.0000
  14 S14          0.4447     0.4447     3.8775 S.3          1    LIG   0.0000
  15 H            0.7152     0.7152    -1.0400 H            1    LIG   0.0000
  16 H            1.1001     2.2548    -0.6551 H            1    LIG   0.0000
  17 H            2.2548     1.1001    -0.6551 H            1    LIG   0.0000
  18 H            0.0377     1.1925     1.1925 H            1    LIG   0.0000
  19 H            1.1925     0.0377     1.1925 H            1    LIG   0.0000
  20 H            2.8398     1.6851     1.6851 H            1    LIG   0.0000
  21 H            1.6851     2.8398     1.6851 H            1    LIG   0.0000
  22 H            1.8949     4.1212     6.4845 H            1    LIG   0.0000
  23 H            2.6503     4.8526     8.6376 H            1    LIG   0.0000
  24 H            3.3005     3.2474    10.2832 H            1    LIG   0.0000
  25 H            3.2009     0.9122     9.7918 H            1    LIG   0.0000
  26 H            2.4484     0.1724     7.6399 H            1    LIG   0.0000
  27 H            0.2423     0.2203     6.3093 H            1    LIG   0.0000
@<TRIPOS>BOND
   1        1        2 1
   2        2        3 1
   3        3        4 1
   4        4        5 2
   5        5        6 1
   6        6        7 1
   7        7        8 ar
   8        8        9 ar
   9        9       10 ar
  10       10       11 ar
  11       11       12 ar
  12       12        7 ar
  13        6       13 2
  14       13       14 1
  15       14        4 1
  16        1       15 1
  17        1       16 1
  18        1       17 1
  19        2       18 1
  20        2       19 1
  21        3       20 1
  22        3       21 1
  23        8       22 1
  24        9       23 1
  25       10       24 1
  26       11       25 1
  27       12       26 1
  28       13       27 1

@<TRIPOS>MOLECULE

  27   28
SMALL
USER_CHARGES
@<TRIPOS>ATOM
   1 C1           1.2925     1.2925    -0.4626 C.3          1    LIG   0.0000
   2 C2           1.0000     1.0000     1.0000 C.3          1    LIG   0.0000
   3 C3           1.8776     1.8776     1.8776 C.3          1    LIG   0.0000
   4 C4           1.5852     1.5852     3.3393 C.2          1    LIG   0.0000
   5 N5           2.1316     2.1180     4.4059 N.2          1    LIG   0.0000
   6 C6           1.6590     1.6412     5.5983 C.2          1    LIG   0.0000
   7 C7           2.1143     2.0912     6.8996 C.ar         1    LIG   0.0000
   8 C8           3.4775     2.1433     7.1716 C.ar         1    LIG   0.0000
   9 C9           3.9053     2.5754     8.4226 C.ar         1    LIG   0.0000
  10 C10          2.9736     2.9502     9.3859 C.ar         1    LIG   0.0000
  11 C11          1.6123     2.8953     9.1051 C.ar         1    LIG   0.0000
  12 C12          1.1759     2.4635     7.8565 C.ar         1    LIG   0.0000
  13 C13          0.6962     0.6804     5.5462 C.2          1    LIG   0.0000
  14 S14          0.4447     0.4447     3.8775 S.3          1    LIG   0.0000
  15 H            0.7152     0.7152    -1.0400 H            1    LIG   0.0000
  16 H            1.1001     2.2548    -0.6551 H            1    LIG   0.0000
  17 H            2.2548     1.1001    -0.6551 H            1    LIG   0.0000
  18 H            0.0377     1.1925     1.1925 H            1    LIG   0.0000
  19 H            1.1925     0.0377     1.1925 H            1    LIG   0.0000
  20 H            2.8398     1.6851     1.6851 H            1    LIG   0.0000
  21 H            1.6851     2.8398     1.6851 H            1    LIG   0.0000
  22 H            4.1426     1.8729     6.4755 H            1    LIG   0.0000
  23 H            4.8827     2.6168     8.6298 H            1    LIG   0.0000
  24 H            3.2842     3.2606    10.2844 H            1    LIG   0.0000
  25 H            0.9471     3.1662     9.8008 H            1    LIG   0.0000
  26 H            0.1985     2.4214     7.6494 H            1    LIG   0.0000
  27 H            0.2423     0.2203     6.3093 H            1    LIG   0.0000
@<TRIPOS>BOND
   1        1        2 1
   2        2        3 1
   3        3        4 1
   4        4        5 2
   5        5        6 1
   6        6        7 1
   7        7        8 ar
   8        8        9 ar
   9        9       10 ar
  10       10       11 ar
  11       11       12 ar
  12       12        7 ar
  13        6       13 2
  14       13       14 1
  15       14        4 1
  16        1       15 1
  17        1       16 1
  18        1       17 1
  19        2       18 1
  20        2       19 1
  21        3       20 1
  22        3       21 1
  23        8       22 1
  24        9       23 1
  25       10       24 1
  26       11       25 1
  27       12       26 1
  28       13       27 1

@<TRIPOS>MOLECULE

  27   28
SMALL
USER_CHARGES
@<TRIPOS>ATOM
   1 C1           1.2925     1.2925    -0.4626 C.3          1    LIG   0.0000
   2 C2           1.0000     1.0000     1.0000 C.3          1    LIG   0.0000
   3 C3           1.8776     1.8776     1.8776 C.3          1    LIG   0.0000
   4 C4           1.5852     1.5852     3.3393 C.2          1    LIG   0.0000
   5 N5           2.1456     0.6967     4.1244 N.2          1    LIG   0.0000
   6 C6           1.6603     0.6660     5.4035 C.2          1    LIG   0.0000
   7 C7           2.1363    -0.2301     6.4397 C.ar         1    LIG   0.0000
   8 C8           3.1539    -1.1343     6.1536 C.ar         1    LIG   0.0000
   9 C9           3.6038    -1.9904     7.1533 C.ar         1    LIG   0.0000
  10 C10          3.0373    -1.9366     8.4232 C.ar         1    LIG   0.0000
  11 C11          2.0203    -1.0290     8.7005 C.ar         1    LIG   0.0000
  12 C12          1.5639    -0.1695     7.7061 C.ar         1    LIG   0.0000
  13 C13          0.6641     1.5409     5.7119 C.2          1    LIG   0.0000
  14 S14          0.4071     2.3950     4.2601 S.3          1    LIG   0.0000
  15 H            0.7152     0.7152    -1.0400 H            1    LIG   0.0000
  16 H            1.1001     2.2548    -0.6551 H            1    LIG   0.0000
  17 H            2.2548     1.1001    -0.6551 H            1    LIG   0.0000
  18 H            0.0377     1.1925     1.1925 H            1    LIG   0.0000
  19 H            1.1925     0.0377     1.1925 H            1    LIG   0.0000
  20 H            2.8398     1.6851     1.6851 H            1    LIG   0.0000
  21 H            1.6851     2.8398     1.6851 H            1    LIG   0.0000
  22 H            3.5575    -1.1684     5.2393 H            1    LIG   0.0000
  23 H            4.3346    -2.6448     6.9593 H            1    LIG   0.0000
  24 H            3.3629    -2.5533     9.1398 H            1    LIG   0.0000
  25 H            1.6170    -0.9942     9.6149 H            1    LIG   0.0000
  26 H            0.8326     0.4845     7.8996 H            1    LIG   0.0000
  27 H            0.1931     1.6556     6.5865 H            1    LIG   0.0000
@<TRIPOS>BOND
   1        1        2 1
   2        2        3 1
   3        3        4 1
   4        4        5 2
   5        5        6 1
   6        6        7 1
   7        7        8 ar
   8        8        9 ar
   9        9       10 ar
  10       10       11 ar
  11       11       12 ar
  12       12        7 ar
  13        6       13 2
  14       13       14 1
  15       14        4 1
  16        1       15 1
  17        1       16 1
  18        1       17 1
  19        2       18 1
  20        2       19 1
  21        3       20 1
  22        3       21 1
  23        8       22 1
  24        9       23 1
  25       10       24 1
  26       11       25 1
  27       12       26 1
  28       13       27 1

@<TRIPOS>MOLECULE

  27   28
SMALL
USER_CHARGES
@<TRIPOS>ATOM
   1 C1           1.2925     1.2925    -0.4626 C.3          1    LIG   0.0000
   2 C2           1.0000     1.0000     1.0000 C.3          1    LIG   0.0000
   3 C3           1.8776     1.8776     1.8776 C.3          1    LIG   0.0000
   4 C4           1.5852     1.5852     3.3393 C.2          1    LIG   0.0000
   5 N5           2.1456     0.6967     4.1244 N.2          1    LIG   0.0000
   6 C6           1.6603     0.6660     5.4035 C.2          1    LIG   0.0000
   7 C7           2.1363    -0.2301     6.4397 C.ar         1    LIG   0.0000
   8 C8           3.5014    -0.3343     6.6857 C.ar         1    LIG   0.0000
   9 C9           3.9492    -1.1966     7.6810 C.ar         1    LIG   0.0000
  10 C10          3.0352    -1.9433     8.4183 C.ar         1    LIG   0.0000
  11 C11          1.6718    -1.8326     8.1656 C.ar         1    LIG   0.0000
  12 C12          1.2156    -0.9729     7.1715 C.ar         1    LIG   0.0000
  13 C13          0.6641     1.5409     5.7119 C.2          1    LIG   0.0000
  14 S14          0.4071     2.3950     4.2601 S.3          1    LIG   0.0000
  15 H            0.7152     0.7152    -1.0400 H            1    LIG   0.0000
  16 H            1.1001     2.2548    -0.6551 H            1    LIG   0.0000
  17 H            2.2548     1.1001    -0.6551 H            1    LIG   0.0000
  18 H            0.0377     1.1925     1.1925 H            1    LIG   0.0000
  19 H            1.1925     0.0377     1.1925 H            1    LIG   0.0000
  20 H            2.8398     1.6851     1.6851 H            1    LIG   0.0000
  21 H            1.6851     2.8398     1.6851 H            1    LIG   0.0000
  22 H            4.1537     0.2049     6.1530 H            1    LIG   0.0000
  23 H            4.9282    -1.2801     7.8667 H            1    LIG   0.0000
  24 H            3.3602    -2.5624     9.1332 H            1    LIG   0.0000
  25 H            1.0194    -2.3712     8.6988 H            1    LIG   0.0000
  26 H            0.2366    -0.8898     6.9851 H            1    LIG   0.0000
  27 H            0.1931     1.6556     6.5865 H            1    LIG   0.0000
@<TRIPOS>BOND
   1        1        2 1
   2        2        3 1
   3        3        4 1
   4        4        5 2
   5        5        6 1
   6        6        7 1
   7        7        8 ar
   8        8        9 ar
   9        9       10 ar
  10       10       11 ar
  11       11       12 ar
  12       12        7 ar
  13        6       13 2
  14       13       14 1
  15       14        4 1
  16        1       15 1
  17        1       16 1
  18        1       17 1
  19        2       18 1
  20        2       19 1
  21        3       20 1
  22        3       21 1
  23        8       22 1
  24        9       23 1
  25       10       24 1
  26       11       25 1
  27       12       26 1
  28       13       27 1

@<TRIPOS>MOLECULE

  27   28
SMALL
USER_CHARGES
@<TRIPOS>ATOM
   1 C1           1.2925     1.2925    -0.4626 C.3          1    LIG   0.0000
   2 C2           1.0000     1.0000     1.0000 C.3          1    LIG   0.0000
   3 C3           1.8776     1.8776     1.8776 C.3          1    LIG   0.0000
   4 C4           1.5852     1.5852     3.3393 C.2          1    LIG   0.0000
   5 N5           2.1456     0.6967     4.1244 N.2          1    LIG   0.0000
   6 C6           1.6603     0.6660     5.4035 C.2          1    LIG   0.0000
   7 C7           2.1363    -0.2301     6.4397 C.ar         1    LIG   0.0000
   8 C8           2.2408    -1.5921     6.1772 C.ar         1    LIG   0.0000
   9 C9           2.6976    -2.4442     7.1771 C.ar         1    LIG   0.0000
  10 C10          3.0446    -1.9321     8.4236 C.ar         1    LIG   0.0000
  11 C11          2.9372    -0.5686     8.6773 C.ar         1    LIG   0.0000
  12 C12          2.4806     0.2906     7.6829 C.ar         1    LIG   0.0000
  13 C13          0.6641     1.5409     5.7119 C.2          1    LIG   0.0000
  14 S14          0.4071     2.3950     4.2601 S.3          1    LIG   0.0000
  15 H            0.7152     0.7152    -1.0400 H            1    LIG   0.0000
  16 H            1.1001     2.2548    -0.6551 H            1    LIG   0.0000
  17 H            2.2548     1.1001    -0.6551 H            1    LIG   0.0000
  18 H            0.0377     1.1925     1.1925 H            1    LIG   0.0000
  19 H            1.1925     0.0377     1.1925 H            1    LIG   0.0000
  20 H            2.8398     1.6851     1.6851 H            1    LIG   0.0000
  21 H            1.6851     2.8398     1.6851 H            1    LIG   0.0000
  22 H            1.9902    -1.9546     5.2796 H            1    LIG   0.0000
  23 H            2.7766    -3.4253     7.0002 H            1    LIG   0.0000
  24 H            3.3727    -2.5473     9.1405 H            1    LIG   0.0000
  25 H            3.1884    -0.2059     9.5747 H            1    LIG   0.0000
  26 H            2.4007     1.2716     7.8598 H            1    LIG   0.0000
  27 H            0.1931     1.6556     6.5865 H            1    LIG   0.0000
@<TRIPOS>BOND
   1        1        2 1
   2        2        3 1
   3        3        4 1
   4        4        5 2
   5        5        6 1
   6        6        7 1
   7        7        8 ar
   8        8        9 ar
   9        9       10 ar
  10       10       11 ar
  11       11       12 ar
  12       12        7 ar
  13        6       13 2
  14       13       14 1
  15       14        4 1
  16        1       15 1
  17        1       16 1
  18        1       17 1
  19        2       18 1
  20        2       19 1
  21        3       20 1
  22        3       21 1
  23        8       22 1
  24        9       23 1
  25       10       24 1
  26       11       25 1
  27       12       26 1
  28       13       27 1

@<TRIPOS>MOLECULE

  27   28
SMALL
USER_CHARGES
@<TRIPOS>ATOM
   1 C1           1.2925     1.2925    -0.4626 C.3          1    LIG   0.0000
   2 C2           1.0000     1.0000     1.0000 C.3          1    LIG   0.0000
   3 C3           1.8776     1.8776     1.8776 C.3          1    LIG   0.0000
   4 C4           1.5852     1.5852     3.3393 C.2          1    LIG   0.0000
   5 N5           0.7098     2.1587     4.1296 N.2          1    LIG   0.0000
   6 C6           0.6831     1.6774     5.4104 C.2          1    LIG   0.0000
   7 C7          -0.2078     2.1586     6.4486 C.ar         1    LIG   0.0000
   8 C8          -1.1110     3.1771     6.1629 C.ar         1    LIG   0.0000
   9 C9          -1.9613     3.6329     7.1649 C.ar         1    LIG   0.0000
  10 C10         -1.9031     3.0708     8.4366 C.ar         1    LIG   0.0000
  11 C11         -0.9968     2.0524     8.7133 C.ar         1    LIG   0.0000
  12 C12         -0.1424     1.5911     7.7170 C.ar         1    LIG   0.0000
  13 C13          1.5560     0.6793     5.7180 C.2          1    LIG   0.0000
  14 S14          2.3950     0.4071     4.2601 S.3          1    LIG   0.0000
  15 H            0.7152     0.7152    -1.0400 H            1    LIG   0.0000
  16 H            1.1001     2.2548    -0.6551 H            1    LIG   0.0000
  17 H            2.2548     1.1001    -0.6551 H            1    LIG   0.0000
  18 H            0.0377     1.1925     1.1925 H            1    LIG   0.0000
  19 H            1.1925     0.0377     1.1925 H            1    LIG   0.0000
  20 H            2.8398     1.6851     1.6851 H            1    LIG   0.0000
  21 H            1.6851     2.8398     1.6851 H            1    LIG   0.0000
  22 H           -1.1487     3.5773     5.2472 H            1    LIG   0.0000
  23 H           -2.6146     4.3648     6.9714 H            1    LIG   0.0000
  24 H           -2.5157     3.4006     9.1549 H            1    LIG   0.0000
  25 H           -0.9595     1.6517     9.6288 H            1    LIG   0.0000
  26 H            0.5116     0.8597     7.9105 H            1    LIG   0.0000
  27 H            1.6768     0.2143     6.5950 H            1    LIG   0.0000
@<TRIPOS>BOND
   1        1        2 1
   2        2        3 1
   3        3        4 1
   4        4        5 2
   5        5        6 1
   6        6        7 1
   7        7        8 ar
   8        8        9 ar
   9        9       10 ar
  10       10       11 ar
  11       11       12 ar
  12       12        7 ar
  13        6       13 2
  14       13       14 1
  15       14        4 1
  16        1       15 1
  17        1       16 1
  18        1       17 1
  19        2       18 1
  20        2       19 1
  21        3       20 1
  22        3       21 1
  23        8       22 1
  24        9       23 1
  25       10       24 1
  26       11       25 1
  27       12       26 1
  28       13       27 1

@<TRIPOS>MOLECULE

  27   28
SMALL
USER_CHARGES
@<TRIPOS>ATOM
   1 C1           1.2925     1.2925    -0.4626 C.3          1    LIG   0.0000
   2 C2           1.0000     1.0000     1.0000 C.3          1    LIG   0.0000
   3 C3           1.8776     1.8776     1.8776 C.3          1    LIG   0.0000
   4 C4           1.5852     1.5852     3.3393 C.2          1    LIG   0.0000
   5 N5           0.7098     2.1587     4.1296 N.2          1    LIG   0.0000
   6 C6           0.6831     1.6774     5.4104 C.2          1    LIG   0.0000
   7 C7          -0.2078     2.1586     6.4486 C.ar         1    LIG   0.0000
   8 C8          -1.5706     2.2650     6.1912 C.ar         1    LIG   0.0000
   9 C9          -2.4177     2.7281     7.1925 C.ar         1    LIG   0.0000
  10 C10         -1.8999     3.0787     8.4357 C.ar         1    LIG   0.0000
  11 C11         -0.5357     2.9688     8.6844 C.ar         1    LIG   0.0000
  12 C12          0.3187     2.5071     7.6881 C.ar         1    LIG   0.0000
  13 C13          1.5560     0.6793     5.7180 C.2          1    LIG   0.0000
  14 S14          2.3950     0.4071     4.2601 S.3          1    LIG   0.0000
  15 H            0.7152     0.7152    -1.0400 H            1    LIG   0.0000
  16 H            1.1001     2.2548    -0.6551 H            1    LIG   0.0000
  17 H            2.2548     1.1001    -0.6551 H            1    LIG   0.0000
  18 H            0.0377     1.1925     1.1925 H            1    LIG   0.0000
  19 H            1.1925     0.0377     1.1925 H            1    LIG   0.0000
  20 H            2.8398     1.6851     1.6851 H            1    LIG   0.0000
  21 H            1.6851     2.8398     1.6851 H            1    LIG   0.0000
  22 H           -1.9373     2.0115     5.2961 H            1    LIG   0.0000
  23 H           -3.3992     2.8091     7.0190 H            1    LIG   0.0000
  24 H           -2.5114     3.4113     9.1536 H            1    LIG   0.0000
  25 H           -0.1689     3.2217     9.5797 H            1    LIG   0.0000
  26 H            1.3003     2.4267     7.8611 H            1    LIG   0.0000
  27 H            1.6768     0.2143     6.5950 H            1    LIG   0.0000
@<TRIPOS>BOND
   1        1        2 1
   2        2        3 1
   3        3        4 1
   4        4        5 2
   5        5        6 1
   6        6        7 1
   7        7        8 ar
   8        8        9 ar
   9        9       10 ar
  10       10       11 ar
  11       11       12 ar
  12       12        7 ar
  13        6       13 2
  14       13       14 1
  15       14        4 1
  16        1       15 1
  17        1       16 1
  18        1       17 1
  19        2       18 1
  20        2       19 1
  21        3       20 1
  22        3       21 1
  23        8       22 1
  24        9       23 1
  25       10       24 1
  26       11       25 1
  27       12       26 1
  28       13       27 1

@<TRIPOS>MOLECULE

  27   28
SMALL
USER_CHARGES
@<TRIPOS>ATOM
   1 C1           1.2925     1.2925    -0.4626 C.3          1    LIG   0.0000
   2 C2           1.0000     1.0000     1.0000 C.3          1    LIG   0.0000
   3 C3           1.8776     1.8776     1.8776 C.3          1    LIG   0.0000
   4 C4           1.5852     1.5852     3.3393 C.2          1    LIG   0.0000
   5 N5           0.7098     2.1587     4.1296 N.2          1    LIG   0.0000
   6 C6           0.6831     1.6774     5.4104 C.2          1    LIG   0.0000
   7 C7          -0.2078     2.1586     6.4486 C.ar         1    LIG   0.0000
   8 C8          -0.3082     3.5246     6.6908 C.ar         1    LIG   0.0000
   9 C9          -1.1646     3.9772     7.6890 C.ar         1    LIG   0.0000
  10 C10         -1.9097     3.0671     8.4326 C.ar         1    LIG   0.0000
  11 C11         -1.8032     1.7027     8.1834 C.ar         1    LIG   0.0000
  12 C12         -0.9484     1.2415     7.1873 C.ar         1    LIG   0.0000
  13 C13          1.5560     0.6793     5.7180 C.2          1    LIG   0.0000
  14 S14          2.3950     0.4071     4.2601 S.3          1    LIG   0.0000
  15 H            0.7152     0.7152    -1.0400 H            1    LIG   0.0000
  16 H            1.1001     2.2548    -0.6551 H            1    LIG   0.0000
  17 H            2.2548     1.1001    -0.6551 H            1    LIG   0.0000
  18 H            0.0377     1.1925     1.1925 H            1    LIG   0.0000
  19 H            1.1925     0.0377     1.1925 H            1    LIG   0.0000
  20 H            2.8398     1.6851     1.6851 H            1    LIG   0.0000
  21 H            1.6851     2.8398     1.6851 H            1    LIG   0.0000
  22 H            0.2294     4.1742     6.1531 H            1    LIG   0.0000
  23 H           -1.2450     4.9570     7.8723 H            1    LIG   0.0000
  24 H           -2.5246     3.3955     9.1496 H            1    LIG   0.0000
  25 H           -2.3413     1.0530     8.7205 H            1    LIG   0.0000
  26 H           -0.8674     0.2618     7.0043 H            1    LIG   0.0000
  27 H            1.6768     0.2143     6.5950 H            1    LIG   0.0000
@<TRIPOS>BOND
   1        1        2 1
   2        2        3 1
   3        3        4 1
   4        4        5 2
   5        5        6 1
   6        6        7 1
   7        7        8 ar
   8        8        9 ar
   9        9       10 ar
  10       10       11 ar
  11       11       12 ar
  12       12        7 ar
  13        6       13 2
  14       13       14 1
  15       14        4 1
  16        1       15 1
  17        1       16 1
  18        1       17 1
  19        2       18 1
  20        2       19 1
  21        3       20 1
  22        3       21 1
  23        8       22 1
  24        9       23 1
  25       10       24 1
  26       11       25 1
  27       12       26 1
  28       13       27 1

