@<TRIPOS>MOLECULE
*****
 27 28 0 0 0
SMALL
USER_CHARGES

@<TRIPOS>ATOM
      1 C1          1.2925    1.2925   -0.4626 C.3     1  LIG1        0.0000
      2 C2          1.0000    1.0000    1.0000 C.3     1  LIG1        0.0000
      3 C3          1.8776    1.8776    1.8776 C.3     1  LIG1        0.0000
      4 C4          1.5852    1.5852    3.3393 C.2     1  LIG1        0.0000
      5 N5          2.1456    0.6967    4.1244 N.2     1  LIG1        0.0000
      6 C6          1.6603    0.6660    5.4035 C.2     1  LIG1        0.0000
      7 C7          2.1363   -0.2301    6.4397 C.ar    1  LIG1        0.0000
      8 C8          3.5014   -0.3343    6.6857 C.ar    1  LIG1        0.0000
      9 C9          3.9492   -1.1966    7.6810 C.ar    1  LIG1        0.0000
     10 C10         3.0352   -1.9433    8.4183 C.ar    1  LIG1        0.0000
     11 C11         1.6718   -1.8326    8.1656 C.ar    1  LIG1        0.0000
     12 C12         1.2156   -0.9729    7.1715 C.ar    1  LIG1        0.0000
     13 C13         0.6641    1.5409    5.7119 C.2     1  LIG1        0.0000
     14 S14         0.4071    2.3950    4.2601 S.3     1  LIG1        0.0000
     15 H           0.7152    0.7152   -1.0400 H       1  LIG1        0.0000
     16 H           1.1001    2.2548   -0.6551 H       1  LIG1        0.0000
     17 H           2.2548    1.1001   -0.6551 H       1  LIG1        0.0000
     18 H           0.0377    1.1925    1.1925 H       1  LIG1        0.0000
     19 H           1.1925    0.0377    1.1925 H       1  LIG1        0.0000
     20 H           2.8398    1.6851    1.6851 H       1  LIG1        0.0000
     21 H           1.6851    2.8398    1.6851 H       1  LIG1        0.0000
     22 H           4.1537    0.2049    6.1530 H       1  LIG1        0.0000
     23 H           4.9282   -1.2801    7.8667 H       1  LIG1        0.0000
     24 H           3.3602   -2.5624    9.1332 H       1  LIG1        0.0000
     25 H           1.0194   -2.3712    8.6988 H       1  LIG1        0.0000
     26 H           0.2366   -0.8898    6.9851 H       1  LIG1        0.0000
     27 H           0.1931    1.6556    6.5865 H       1  LIG1        0.0000
@<TRIPOS>BOND
     1     1     2    1
     2     2     3    1
     3     3     4    1
     4     4     5    2
     5     5     6    1
     6     6     7    1
     7     7     8   ar
     8     8     9   ar
     9     9    10   ar
    10    10    11   ar
    11    11    12   ar
    12    12     7   ar
    13     6    13    2
    14    13    14    1
    15    14     4    1
    16     1    15    1
    17     1    16    1
    18     1    17    1
    19     2    18    1
    20     2    19    1
    21     3    20    1
    22     3    21    1
    23     8    22    1
    24     9    23    1
    25    10    24    1
    26    11    25    1
    27    12    26    1
    28    13    27    1
