@<TRIPOS>MOLECULE
*****
 27 28 0 0 0
SMALL
USER_CHARGES

@<TRIPOS>ATOM
      1 C1          1.2925    1.2925   -0.4626 C.3     1  LIG1        0.0000
      2 C2          1.0000    1.0000    1.0000 C.3     1  LIG1        0.0000
      3 C3          1.8776    1.8776    1.8776 C.3     1  LIG1        0.0000
      4 C4          1.5852    1.5852    3.3393 C.2     1  LIG1        0.0000
      5 N5          0.7238    0.7374    3.8482 N.2     1  LIG1        0.0000
      6 C6          0.6844    0.7022    5.2156 C.2     1  LIG1        0.0000
      7 C7         -0.1858   -0.1627    5.9888 C.ar    1  LIG1        0.0000
      8 C8         -1.0538   -1.0296    5.3330 C.ar    1  LIG1        0.0000
      9 C9         -1.8854   -1.8551    6.0825 C.ar    1  LIG1        0.0000
     10 C10        -1.8434   -1.8085    7.4726 C.ar    1  LIG1        0.0000
     11 C11        -0.9720   -0.9387    8.1201 C.ar    1  LIG1        0.0000
     12 C12        -0.1373   -0.1091    7.3779 C.ar    1  LIG1        0.0000
     13 C13         1.5240    1.5398    5.8837 C.2     1  LIG1        0.0000
     14 S14         2.3575    2.3575    4.6426 S.3     1  LIG1        0.0000
     15 H           0.7152    0.7152   -1.0400 H       1  LIG1        0.0000
     16 H           1.1001    2.2548   -0.6551 H       1  LIG1        0.0000
     17 H           2.2548    1.1001   -0.6551 H       1  LIG1        0.0000
     18 H           0.0377    1.1925    1.1925 H       1  LIG1        0.0000
     19 H           1.1925    0.0377    1.1925 H       1  LIG1        0.0000
     20 H           2.8398    1.6851    1.6851 H       1  LIG1        0.0000
     21 H           1.6851    2.8398    1.6851 H       1  LIG1        0.0000
     22 H          -1.0796   -1.0591    4.3338 H       1  LIG1        0.0000
     23 H          -2.5137   -2.4823    5.6221 H       1  LIG1        0.0000
     24 H          -2.4424   -2.4032    8.0088 H       1  LIG1        0.0000
     25 H          -0.9456   -0.9096    9.1193 H       1  LIG1        0.0000
     26 H           0.4905    0.5187    7.8381 H       1  LIG1        0.0000
     27 H           1.6275    1.6496    6.8722 H       1  LIG1        0.0000
@<TRIPOS>BOND
     1     1     2    1
     2     2     3    1
     3     3     4    1
     4     4     5    2
     5     5     6    1
     6     6     7    1
     7     7     8   ar
     8     8     9   ar
     9     9    10   ar
    10    10    11   ar
    11    11    12   ar
    12    12     7   ar
    13     6    13    2
    14    13    14    1
    15    14     4    1
    16     1    15    1
    17     1    16    1
    18     1    17    1
    19     2    18    1
    20     2    19    1
    21     3    20    1
    22     3    21    1
    23     8    22    1
    24     9    23    1
    25    10    24    1
    26    11    25    1
    27    12    26    1
    28    13    27    1
