@<TRIPOS>MOLECULE
*****
 27 28 0 0 0
SMALL
USER_CHARGES

@<TRIPOS>ATOM
      1 C1          1.2925    1.2925   -0.4626 C.3     1  LIG1        0.0000
      2 C2          1.0000    1.0000    1.0000 C.3     1  LIG1        0.0000
      3 C3          1.8776    1.8776    1.8776 C.3     1  LIG1        0.0000
      4 C4          1.5852    1.5852    3.3393 C.2     1  LIG1        0.0000
      5 N5          0.7098    2.1587    4.1296 N.2     1  LIG1        0.0000
      6 C6          0.6831    1.6774    5.4104 C.2     1  LIG1        0.0000
      7 C7         -0.2078    2.1586    6.4486 C.ar    1  LIG1        0.0000
      8 C8         -1.5706    2.2650    6.1912 C.ar    1  LIG1        0.0000
      9 C9         -2.4177    2.7281    7.1925 C.ar    1  LIG1        0.0000
     10 C10        -1.8999    3.0787    8.4357 C.ar    1  LIG1        0.0000
     11 C11        -0.5357    2.9688    8.6844 C.ar    1  LIG1        0.0000
     12 C12         0.3187    2.5071    7.6881 C.ar    1  LIG1        0.0000
     13 C13         1.5560    0.6793    5.7180 C.2     1  LIG1        0.0000
     14 S14         2.3950    0.4071    4.2601 S.3     1  LIG1        0.0000
     15 H           0.7152    0.7152   -1.0400 H       1  LIG1        0.0000
     16 H           1.1001    2.2548   -0.6551 H       1  LIG1        0.0000
     17 H           2.2548    1.1001   -0.6551 H       1  LIG1        0.0000
     18 H           0.0377    1.1925    1.1925 H       1  LIG1        0.0000
     19 H           1.1925    0.0377    1.1925 H       1  LIG1        0.0000
     20 H           2.8398    1.6851    1.6851 H       1  LIG1        0.0000
     21 H           1.6851    2.8398    1.6851 H       1  LIG1        0.0000
     22 H          -1.9373    2.0115    5.2961 H       1  LIG1        0.0000
     23 H          -3.3992    2.8091    7.0190 H       1  LIG1        0.0000
     24 H          -2.5114    3.4113    9.1536 H       1  LIG1        0.0000
     25 H          -0.1689    3.2217    9.5797 H       1  LIG1        0.0000
     26 H           1.3003    2.4267    7.8611 H       1  LIG1        0.0000
     27 H           1.6768    0.2143    6.5950 H       1  LIG1        0.0000
@<TRIPOS>BOND
     1     1     2    1
     2     2     3    1
     3     3     4    1
     4     4     5    2
     5     5     6    1
     6     6     7    1
     7     7     8   ar
     8     8     9   ar
     9     9    10   ar
    10    10    11   ar
    11    11    12   ar
    12    12     7   ar
    13     6    13    2
    14    13    14    1
    15    14     4    1
    16     1    15    1
    17     1    16    1
    18     1    17    1
    19     2    18    1
    20     2    19    1
    21     3    20    1
    22     3    21    1
    23     8    22    1
    24     9    23    1
    25    10    24    1
    26    11    25    1
    27    12    26    1
    28    13    27    1
