@<TRIPOS>MOLECULE
*****
 27 28 0 0 0
SMALL
USER_CHARGES

@<TRIPOS>ATOM
      1 C1          1.2925    1.2925   -0.4626 C.3     1  LIG1        0.0000
      2 C2          1.0000    1.0000    1.0000 C.3     1  LIG1        0.0000
      3 C3          1.8776    1.8776    1.8776 C.3     1  LIG1        0.0000
      4 C4          1.5852    1.5852    3.3393 C.2     1  LIG1        0.0000
      5 N5          2.1316    2.1180    4.4059 N.2     1  LIG1        0.0000
      6 C6          1.6590    1.6412    5.5983 C.2     1  LIG1        0.0000
      7 C7          2.1143    2.0912    6.8996 C.ar    1  LIG1        0.0000
      8 C8          3.4775    2.1433    7.1716 C.ar    1  LIG1        0.0000
      9 C9          3.9053    2.5754    8.4226 C.ar    1  LIG1        0.0000
     10 C10         2.9736    2.9502    9.3859 C.ar    1  LIG1        0.0000
     11 C11         1.6123    2.8953    9.1051 C.ar    1  LIG1        0.0000
     12 C12         1.1759    2.4635    7.8565 C.ar    1  LIG1        0.0000
     13 C13         0.6962    0.6804    5.5462 C.2     1  LIG1        0.0000
     14 S14         0.4447    0.4447    3.8775 S.3     1  LIG1        0.0000
     15 H           0.7152    0.7152   -1.0400 H       1  LIG1        0.0000
     16 H           1.1001    2.2548   -0.6551 H       1  LIG1        0.0000
     17 H           2.2548    1.1001   -0.6551 H       1  LIG1        0.0000
     18 H           0.0377    1.1925    1.1925 H       1  LIG1        0.0000
     19 H           1.1925    0.0377    1.1925 H       1  LIG1        0.0000
     20 H           2.8398    1.6851    1.6851 H       1  LIG1        0.0000
     21 H           1.6851    2.8398    1.6851 H       1  LIG1        0.0000
     22 H           4.1426    1.8729    6.4755 H       1  LIG1        0.0000
     23 H           4.8827    2.6168    8.6298 H       1  LIG1        0.0000
     24 H           3.2842    3.2606   10.2844 H       1  LIG1        0.0000
     25 H           0.9471    3.1662    9.8008 H       1  LIG1        0.0000
     26 H           0.1985    2.4214    7.6494 H       1  LIG1        0.0000
     27 H           0.2423    0.2203    6.3093 H       1  LIG1        0.0000
@<TRIPOS>BOND
     1     1     2    1
     2     2     3    1
     3     3     4    1
     4     4     5    2
     5     5     6    1
     6     6     7    1
     7     7     8   ar
     8     8     9   ar
     9     9    10   ar
    10    10    11   ar
    11    11    12   ar
    12    12     7   ar
    13     6    13    2
    14    13    14    1
    15    14     4    1
    16     1    15    1
    17     1    16    1
    18     1    17    1
    19     2    18    1
    20     2    19    1
    21     3    20    1
    22     3    21    1
    23     8    22    1
    24     9    23    1
    25    10    24    1
    26    11    25    1
    27    12    26    1
    28    13    27    1
