@<TRIPOS>MOLECULE

  24   25
SMALL
USER_CHARGES
@<TRIPOS>ATOM
   1 O1           5.4898     3.3638     0.9922 O.3          1    LIG   0.0000
   2 C2           4.8171     2.1936     0.9961 C.ar         1    LIG   0.0000
   3 C3           5.5204     0.9937     0.9995 C.ar         1    LIG   0.0000
   4 C4           4.8128    -0.2034     1.0034 C.ar         1    LIG   0.0000
   5 C5           3.4222    -0.2120     1.0036 C.ar         1    LIG   0.0000
   6 C6           2.7397     1.0000     1.0000 C.ar         1    LIG   0.0000
   7 S7           1.0000     1.0000     1.0000 S.3          1    LIG   0.0000
   8 C8           0.6052    -0.7664     1.0055 C.3          1    LIG   0.0000
   9 C9          -0.9023    -0.9481     1.0060 C.2          1    LIG   0.0000
  10 C10         -1.7310    -1.0444     2.1452 C.2          1    LIG   0.0000
  11 N11         -2.9585    -1.1914     1.7017 N.2          1    LIG   0.0000
  12 N12         -2.9880    -1.1951     0.3770 N.pl3        1    LIG   0.0000
  13 C13         -1.7138    -1.0558    -0.0870 C.2          1    LIG   0.0000
  14 C14          3.4262     2.2097     0.9963 C.ar         1    LIG   0.0000
  15 H           -3.8082    -1.2851    -0.1881 H            1    LIG   0.0000
  16 H            6.4898     3.3657     0.9920 H            1    LIG   0.0000
  17 H            6.5204     0.9919     0.9991 H            1    LIG   0.0000
  18 H            5.3110    -1.0704     1.0061 H            1    LIG   0.0000
  19 H            2.9202    -1.0769     1.0063 H            1    LIG   0.0000
  20 H            0.9925    -1.1920     1.8233 H            1    LIG   0.0000
  21 H            0.9925    -1.1971     0.1903 H            1    LIG   0.0000
  22 H           -1.4405    -1.0079     3.1014 H            1    LIG   0.0000
  23 H           -1.4278    -1.0362    -1.0450 H            1    LIG   0.0000
  24 H            2.9280     3.0767     0.9937 H            1    LIG   0.0000
@<TRIPOS>BOND
   1        1        2 1
   2        2        3 ar
   3        3        4 ar
   4        4        5 ar
   5        5        6 ar
   6        6        7 1
   7        7        8 1
   8        8        9 1
   9        9       10 1
  10       10       11 2
  11       11       12 1
  12       12       13 1
  13       13        9 2
  14        6       14 ar
  15       14        2 ar
  16       12       15 1
  17        1       16 1
  18        3       17 1
  19        4       18 1
  20        5       19 1
  21        8       20 1
  22        8       21 1
  23       10       22 1
  24       13       23 1
  25       14       24 1

@<TRIPOS>MOLECULE

  24   25
SMALL
USER_CHARGES
@<TRIPOS>ATOM
   1 O1           5.4898     3.3638     0.9922 O.3          1    LIG   0.0000
   2 C2           4.8171     2.1936     0.9961 C.ar         1    LIG   0.0000
   3 C3           5.5204     0.9937     0.9995 C.ar         1    LIG   0.0000
   4 C4           4.8128    -0.2034     1.0034 C.ar         1    LIG   0.0000
   5 C5           3.4222    -0.2120     1.0036 C.ar         1    LIG   0.0000
   6 C6           2.7397     1.0000     1.0000 C.ar         1    LIG   0.0000
   7 S7           1.0000     1.0000     1.0000 S.3          1    LIG   0.0000
   8 C8           0.6052    -0.7664     1.0055 C.3          1    LIG   0.0000
   9 C9           0.9726    -1.3713    -0.3379 C.2          1    LIG   0.0000
  10 C10          1.5355    -0.6854    -1.4362 C.2          1    LIG   0.0000
  11 N11          1.6960    -1.5753    -2.3888 N.2          1    LIG   0.0000
  12 N12          1.2868    -2.7724    -1.9947 N.pl3        1    LIG   0.0000
  13 C13          0.8181    -2.6736    -0.7184 C.2          1    LIG   0.0000
  14 C14          3.4262     2.2097     0.9963 C.ar         1    LIG   0.0000
  15 H            1.3169    -3.6087    -2.5422 H            1    LIG   0.0000
  16 H            6.4898     3.3657     0.9920 H            1    LIG   0.0000
  17 H            6.5204     0.9919     0.9991 H            1    LIG   0.0000
  18 H            5.3110    -1.0704     1.0061 H            1    LIG   0.0000
  19 H            2.9202    -1.0769     1.0063 H            1    LIG   0.0000
  20 H           -0.3737    -0.8887     1.1696 H            1    LIG   0.0000
  21 H            1.1239    -1.2217     1.7291 H            1    LIG   0.0000
  22 H            1.7665     0.2866    -1.4802 H            1    LIG   0.0000
  23 H            0.4343    -3.4137    -0.1662 H            1    LIG   0.0000
  24 H            2.9280     3.0767     0.9937 H            1    LIG   0.0000
@<TRIPOS>BOND
   1        1        2 1
   2        2        3 ar
   3        3        4 ar
   4        4        5 ar
   5        5        6 ar
   6        6        7 1
   7        7        8 1
   8        8        9 1
   9        9       10 1
  10       10       11 2
  11       11       12 1
  12       12       13 1
  13       13        9 2
  14        6       14 ar
  15       14        2 ar
  16       12       15 1
  17        1       16 1
  18        3       17 1
  19        4       18 1
  20        5       19 1
  21        8       20 1
  22        8       21 1
  23       10       22 1
  24       13       23 1
  25       14       24 1

@<TRIPOS>MOLECULE

  24   25
SMALL
USER_CHARGES
@<TRIPOS>ATOM
   1 O1           5.4898     3.3638     0.9922 O.3          1    LIG   0.0000
   2 C2           4.8171     2.1936     0.9961 C.ar         1    LIG   0.0000
   3 C3           5.5204     0.9937     0.9995 C.ar         1    LIG   0.0000
   4 C4           4.8128    -0.2034     1.0034 C.ar         1    LIG   0.0000
   5 C5           3.4222    -0.2120     1.0036 C.ar         1    LIG   0.0000
   6 C6           2.7397     1.0000     1.0000 C.ar         1    LIG   0.0000
   7 S7           1.0000     1.0000     1.0000 S.3          1    LIG   0.0000
   8 C8           0.6052    -0.7664     1.0055 C.3          1    LIG   0.0000
   9 C9           0.9726    -1.3630     2.3526 C.2          1    LIG   0.0000
  10 C10          1.5355    -0.6703     3.4466 C.2          1    LIG   0.0000
  11 N11          1.6919    -1.5534     4.4062 N.2          1    LIG   0.0000
  12 N12          1.2755    -2.7512     4.0223 N.pl3        1    LIG   0.0000
  13 C13          0.8300    -2.6656     2.7367 C.2          1    LIG   0.0000
  14 C14          3.4262     2.2097     0.9963 C.ar         1    LIG   0.0000
  15 H            1.2862    -3.5798     4.5821 H            1    LIG   0.0000
  16 H            6.4898     3.3657     0.9920 H            1    LIG   0.0000
  17 H            6.5204     0.9919     0.9991 H            1    LIG   0.0000
  18 H            5.3110    -1.0704     1.0061 H            1    LIG   0.0000
  19 H            2.9202    -1.0769     1.0063 H            1    LIG   0.0000
  20 H            1.1239    -1.2261     0.2847 H            1    LIG   0.0000
  21 H           -0.3737    -0.8897     0.8421 H            1    LIG   0.0000
  22 H            1.7691     0.3014     3.4836 H            1    LIG   0.0000
  23 H            0.4679    -3.4140     2.1810 H            1    LIG   0.0000
  24 H            2.9280     3.0767     0.9937 H            1    LIG   0.0000
@<TRIPOS>BOND
   1        1        2 1
   2        2        3 ar
   3        3        4 ar
   4        4        5 ar
   5        5        6 ar
   6        6        7 1
   7        7        8 1
   8        8        9 1
   9        9       10 1
  10       10       11 2
  11       11       12 1
  12       12       13 1
  13       13        9 2
  14        6       14 ar
  15       14        2 ar
  16       12       15 1
  17        1       16 1
  18        3       17 1
  19        4       18 1
  20        5       19 1
  21        8       20 1
  22        8       21 1
  23       10       22 1
  24       13       23 1
  25       14       24 1

@<TRIPOS>MOLECULE

  24   25
SMALL
USER_CHARGES
@<TRIPOS>ATOM
   1 O1           5.4898    -1.3638     1.0078 O.3          1    LIG   0.0000
   2 C2           4.8171    -0.1936     1.0039 C.ar         1    LIG   0.0000
   3 C3           5.5204     1.0063     1.0005 C.ar         1    LIG   0.0000
   4 C4           4.8128     2.2034     0.9966 C.ar         1    LIG   0.0000
   5 C5           3.4222     2.2120     0.9964 C.ar         1    LIG   0.0000
   6 C6           2.7397     1.0000     1.0000 C.ar         1    LIG   0.0000
   7 S7           1.0000     1.0000     1.0000 S.3          1    LIG   0.0000
   8 C8           0.6052    -0.7664     1.0055 C.3          1    LIG   0.0000
   9 C9           0.9726    -1.3630     2.3526 C.2          1    LIG   0.0000
  10 C10          1.5355    -0.6703     3.4466 C.2          1    LIG   0.0000
  11 N11          1.6919    -1.5534     4.4062 N.2          1    LIG   0.0000
  12 N12          1.2755    -2.7512     4.0223 N.pl3        1    LIG   0.0000
  13 C13          0.8300    -2.6656     2.7367 C.2          1    LIG   0.0000
  14 C14          3.4262    -0.2097     1.0037 C.ar         1    LIG   0.0000
  15 H            1.2862    -3.5798     4.5821 H            1    LIG   0.0000
  16 H            6.4898    -1.3657     1.0080 H            1    LIG   0.0000
  17 H            6.5204     1.0081     1.0009 H            1    LIG   0.0000
  18 H            5.3110     3.0704     0.9939 H            1    LIG   0.0000
  19 H            2.9202     3.0769     0.9937 H            1    LIG   0.0000
  20 H            1.1239    -1.2261     0.2847 H            1    LIG   0.0000
  21 H           -0.3737    -0.8897     0.8421 H            1    LIG   0.0000
  22 H            1.7691     0.3014     3.4836 H            1    LIG   0.0000
  23 H            0.4679    -3.4140     2.1810 H            1    LIG   0.0000
  24 H            2.9280    -1.0767     1.0063 H            1    LIG   0.0000
@<TRIPOS>BOND
   1        1        2 1
   2        2        3 ar
   3        3        4 ar
   4        4        5 ar
   5        5        6 ar
   6        6        7 1
   7        7        8 1
   8        8        9 1
   9        9       10 1
  10       10       11 2
  11       11       12 1
  12       12       13 1
  13       13        9 2
  14        6       14 ar
  15       14        2 ar
  16       12       15 1
  17        1       16 1
  18        3       17 1
  19        4       18 1
  20        5       19 1
  21        8       20 1
  22        8       21 1
  23       10       22 1
  24       13       23 1
  25       14       24 1

@<TRIPOS>MOLECULE

  24   25
SMALL
USER_CHARGES
@<TRIPOS>ATOM
   1 O1           5.4898    -0.6770    -0.6660 O.3          1    LIG   0.0000
   2 C2           4.8171     0.1532     0.1588 C.ar         1    LIG   0.0000
   3 C3           5.5204     1.0041     1.0048 C.ar         1    LIG   0.0000
   4 C4           4.8128     1.8533     1.8485 C.ar         1    LIG   0.0000
   5 C5           3.4222     1.8596     1.8545 C.ar         1    LIG   0.0000
   6 C6           2.7397     1.0000     1.0000 C.ar         1    LIG   0.0000
   7 S7           1.0000     1.0000     1.0000 S.3          1    LIG   0.0000
   8 C8           0.6052    -0.7664     1.0055 C.3          1    LIG   0.0000
   9 C9          -0.2038    -1.1080    -0.2333 C.2          1    LIG   0.0000
  10 C10         -1.6110    -1.0789    -0.3454 C.2          1    LIG   0.0000
  11 N11         -1.8943    -1.4395    -1.5762 N.2          1    LIG   0.0000
  12 N12         -0.7901    -1.6946    -2.2628 N.pl3        1    LIG   0.0000
  13 C13          0.2841    -1.5066    -1.4448 C.2          1    LIG   0.0000
  14 C14          3.4262     0.1420     0.1473 C.ar         1    LIG   0.0000
  15 H           -0.7512    -1.9778    -3.2211 H            1    LIG   0.0000
  16 H            6.4898    -0.6784    -0.6671 H            1    LIG   0.0000
  17 H            6.5204     1.0051     1.0064 H            1    LIG   0.0000
  18 H            5.3110     2.4683     2.4597 H            1    LIG   0.0000
  19 H            2.9202     2.4730     2.4642 H            1    LIG   0.0000
  20 H            0.0724    -0.9863     1.8227 H            1    LIG   0.0000
  21 H            1.4525    -1.2974     1.0071 H            1    LIG   0.0000
  22 H           -2.2635    -0.8324     0.3712 H            1    LIG   0.0000
  23 H            1.2459    -1.6358    -1.6859 H            1    LIG   0.0000
  24 H            2.9280    -0.4729    -0.4640 H            1    LIG   0.0000
@<TRIPOS>BOND
   1        1        2 1
   2        2        3 ar
   3        3        4 ar
   4        4        5 ar
   5        5        6 ar
   6        6        7 1
   7        7        8 1
   8        8        9 1
   9        9       10 1
  10       10       11 2
  11       11       12 1
  12       12       13 1
  13       13        9 2
  14        6       14 ar
  15       14        2 ar
  16       12       15 1
  17        1       16 1
  18        3       17 1
  19        4       18 1
  20        5       19 1
  21        8       20 1
  22        8       21 1
  23       10       22 1
  24       13       23 1
  25       14       24 1

@<TRIPOS>MOLECULE

  24   25
SMALL
USER_CHARGES
@<TRIPOS>ATOM
   1 O1           5.4898    -0.6770    -0.6660 O.3          1    LIG   0.0000
   2 C2           4.8171     0.1532     0.1588 C.ar         1    LIG   0.0000
   3 C3           5.5204     1.0041     1.0048 C.ar         1    LIG   0.0000
   4 C4           4.8128     1.8533     1.8485 C.ar         1    LIG   0.0000
   5 C5           3.4222     1.8596     1.8545 C.ar         1    LIG   0.0000
   6 C6           2.7397     1.0000     1.0000 C.ar         1    LIG   0.0000
   7 S7           1.0000     1.0000     1.0000 S.3          1    LIG   0.0000
   8 C8           0.6052    -0.7664     1.0055 C.3          1    LIG   0.0000
   9 C9           0.0169    -1.1494     2.3519 C.2          1    LIG   0.0000
  10 C10         -0.4140    -2.4372     2.7386 C.2          1    LIG   0.0000
  11 N11         -0.8489    -2.3295     3.9733 N.2          1    LIG   0.0000
  12 N12         -0.7315    -1.0846     4.4116 N.pl3        1    LIG   0.0000
  13 C13         -0.2028    -0.3202     3.4144 C.2          1    LIG   0.0000
  14 C14          3.4262     0.1420     0.1473 C.ar         1    LIG   0.0000
  15 H           -0.9880    -0.7600     5.3220 H            1    LIG   0.0000
  16 H            6.4898    -0.6784    -0.6671 H            1    LIG   0.0000
  17 H            6.5204     1.0051     1.0064 H            1    LIG   0.0000
  18 H            5.3110     2.4683     2.4597 H            1    LIG   0.0000
  19 H            2.9202     2.4730     2.4642 H            1    LIG   0.0000
  20 H            1.4386    -1.2948     0.8434 H            1    LIG   0.0000
  21 H           -0.0590    -0.9617     0.2838 H            1    LIG   0.0000
  22 H           -0.3923    -3.2677     2.1821 H            1    LIG   0.0000
  23 H           -0.0121     0.6607     3.4534 H            1    LIG   0.0000
  24 H            2.9280    -0.4729    -0.4640 H            1    LIG   0.0000
@<TRIPOS>BOND
   1        1        2 1
   2        2        3 ar
   3        3        4 ar
   4        4        5 ar
   5        5        6 ar
   6        6        7 1
   7        7        8 1
   8        8        9 1
   9        9       10 1
  10       10       11 2
  11       11       12 1
  12       12       13 1
  13       13        9 2
  14        6       14 ar
  15       14        2 ar
  16       12       15 1
  17        1       16 1
  18        3       17 1
  19        4       18 1
  20        5       19 1
  21        8       20 1
  22        8       21 1
  23       10       22 1
  24       13       23 1
  25       14       24 1

@<TRIPOS>MOLECULE

  24   25
SMALL
USER_CHARGES
@<TRIPOS>ATOM
   1 O1           5.4898    -0.6660     2.6770 O.3          1    LIG   0.0000
   2 C2           4.8171     0.1588     1.8468 C.ar         1    LIG   0.0000
   3 C3           5.5204     1.0048     0.9959 C.ar         1    LIG   0.0000
   4 C4           4.8128     1.8485     0.1467 C.ar         1    LIG   0.0000
   5 C5           3.4222     1.8545     0.1404 C.ar         1    LIG   0.0000
   6 C6           2.7397     1.0000     1.0000 C.ar         1    LIG   0.0000
   7 S7           1.0000     1.0000     1.0000 S.3          1    LIG   0.0000
   8 C8           0.6052    -0.7664     1.0055 C.3          1    LIG   0.0000
   9 C9          -0.2038    -1.1080    -0.2333 C.2          1    LIG   0.0000
  10 C10         -0.6975    -2.3841    -0.5820 C.2          1    LIG   0.0000
  11 N11         -1.3388    -2.2376    -1.7188 N.2          1    LIG   0.0000
  12 N12         -1.3008    -0.9776    -2.1270 N.pl3        1    LIG   0.0000
  13 C13         -0.5871    -0.2486    -1.2227 C.2          1    LIG   0.0000
  14 C14          3.4262     0.1473     1.8580 C.ar         1    LIG   0.0000
  15 H           -1.7248    -0.6209    -2.9595 H            1    LIG   0.0000
  16 H            6.4898    -0.6671     2.6784 H            1    LIG   0.0000
  17 H            6.5204     1.0064     0.9949 H            1    LIG   0.0000
  18 H            5.3110     2.4597    -0.4683 H            1    LIG   0.0000
  19 H            2.9202     2.4642    -0.4730 H            1    LIG   0.0000
  20 H            0.0724    -0.9863     1.8227 H            1    LIG   0.0000
  21 H            1.4525    -1.2974     1.0071 H            1    LIG   0.0000
  22 H           -0.5816    -3.2324    -0.0653 H            1    LIG   0.0000
  23 H           -0.3832     0.7290    -1.2742 H            1    LIG   0.0000
  24 H            2.9280    -0.4640     2.4729 H            1    LIG   0.0000
@<TRIPOS>BOND
   1        1        2 1
   2        2        3 ar
   3        3        4 ar
   4        4        5 ar
   5        5        6 ar
   6        6        7 1
   7        7        8 1
   8        8        9 1
   9        9       10 1
  10       10       11 2
  11       11       12 1
  12       12       13 1
  13       13        9 2
  14        6       14 ar
  15       14        2 ar
  16       12       15 1
  17        1       16 1
  18        3       17 1
  19        4       18 1
  20        5       19 1
  21        8       20 1
  22        8       21 1
  23       10       22 1
  24       13       23 1
  25       14       24 1

@<TRIPOS>MOLECULE

  24   25
SMALL
USER_CHARGES
@<TRIPOS>ATOM
   1 O1           5.4898    -0.6660     2.6770 O.3          1    LIG   0.0000
   2 C2           4.8171     0.1588     1.8468 C.ar         1    LIG   0.0000
   3 C3           5.5204     1.0048     0.9959 C.ar         1    LIG   0.0000
   4 C4           4.8128     1.8485     0.1467 C.ar         1    LIG   0.0000
   5 C5           3.4222     1.8545     0.1404 C.ar         1    LIG   0.0000
   6 C6           2.7397     1.0000     1.0000 C.ar         1    LIG   0.0000
   7 S7           1.0000     1.0000     1.0000 S.3          1    LIG   0.0000
   8 C8           0.6052    -0.7664     1.0055 C.3          1    LIG   0.0000
   9 C9           1.7047    -1.5330     0.2921 C.2          1    LIG   0.0000
  10 C10          1.7533    -1.8332    -1.0868 C.2          1    LIG   0.0000
  11 N11          2.8662    -2.5027    -1.2833 N.2          1    LIG   0.0000
  12 N12          3.5357    -2.6550    -0.1501 N.pl3        1    LIG   0.0000
  13 C13          2.8274    -2.0679     0.8560 C.2          1    LIG   0.0000
  14 C14          3.4262     0.1473     1.8580 C.ar         1    LIG   0.0000
  15 H            4.4139    -3.1225    -0.0496 H            1    LIG   0.0000
  16 H            6.4898    -0.6671     2.6784 H            1    LIG   0.0000
  17 H            6.5204     1.0064     0.9949 H            1    LIG   0.0000
  18 H            5.3110     2.4597    -0.4683 H            1    LIG   0.0000
  19 H            2.9202     2.4642    -0.4730 H            1    LIG   0.0000
  20 H           -0.2644    -0.9151     0.5345 H            1    LIG   0.0000
  21 H            0.5324    -1.0888     1.9493 H            1    LIG   0.0000
  22 H            1.0743    -1.5851    -1.7776 H            1    LIG   0.0000
  23 H            3.0815    -2.0353     1.8226 H            1    LIG   0.0000
  24 H            2.9280    -0.4640     2.4729 H            1    LIG   0.0000
@<TRIPOS>BOND
   1        1        2 1
   2        2        3 ar
   3        3        4 ar
   4        4        5 ar
   5        5        6 ar
   6        6        7 1
   7        7        8 1
   8        8        9 1
   9        9       10 1
  10       10       11 2
  11       11       12 1
  12       12       13 1
  13       13        9 2
  14        6       14 ar
  15       14        2 ar
  16       12       15 1
  17        1       16 1
  18        3       17 1
  19        4       18 1
  20        5       19 1
  21        8       20 1
  22        8       21 1
  23       10       22 1
  24       13       23 1
  25       14       24 1

@<TRIPOS>MOLECULE

  24   25
SMALL
USER_CHARGES
@<TRIPOS>ATOM
   1 O1           5.4898     1.0078     3.3638 O.3          1    LIG   0.0000
   2 C2           4.8171     1.0039     2.1936 C.ar         1    LIG   0.0000
   3 C3           5.5204     1.0005     0.9937 C.ar         1    LIG   0.0000
   4 C4           4.8128     0.9966    -0.2034 C.ar         1    LIG   0.0000
   5 C5           3.4222     0.9964    -0.2120 C.ar         1    LIG   0.0000
   6 C6           2.7397     1.0000     1.0000 C.ar         1    LIG   0.0000
   7 S7           1.0000     1.0000     1.0000 S.3          1    LIG   0.0000
   8 C8           0.6052    -0.7664     1.0055 C.3          1    LIG   0.0000
   9 C9          -0.9023    -0.9481     1.0060 C.2          1    LIG   0.0000
  10 C10         -1.8673     0.0828     1.0028 C.2          1    LIG   0.0000
  11 N11         -3.0414    -0.5059     1.0024 N.2          1    LIG   0.0000
  12 N12         -2.9120    -1.8246     1.0025 N.pl3        1    LIG   0.0000
  13 C13         -1.5838    -2.1314     1.0162 C.2          1    LIG   0.0000
  14 C14          3.4262     1.0037     2.2097 C.ar         1    LIG   0.0000
  15 H           -3.6632    -2.4846     0.9940 H            1    LIG   0.0000
  16 H            6.4898     1.0080     3.3657 H            1    LIG   0.0000
  17 H            6.5204     1.0009     0.9919 H            1    LIG   0.0000
  18 H            5.3110     0.9939    -1.0704 H            1    LIG   0.0000
  19 H            2.9202     0.9937    -1.0769 H            1    LIG   0.0000
  20 H            0.9925    -1.1920     1.8233 H            1    LIG   0.0000
  21 H            0.9925    -1.1971     0.1903 H            1    LIG   0.0000
  22 H           -1.6913     1.0672     1.0012 H            1    LIG   0.0000
  23 H           -1.1846    -3.0481     1.0309 H            1    LIG   0.0000
  24 H            2.9280     1.0063     3.0767 H            1    LIG   0.0000
@<TRIPOS>BOND
   1        1        2 1
   2        2        3 ar
   3        3        4 ar
   4        4        5 ar
   5        5        6 ar
   6        6        7 1
   7        7        8 1
   8        8        9 1
   9        9       10 1
  10       10       11 2
  11       11       12 1
  12       12       13 1
  13       13        9 2
  14        6       14 ar
  15       14        2 ar
  16       12       15 1
  17        1       16 1
  18        3       17 1
  19        4       18 1
  20        5       19 1
  21        8       20 1
  22        8       21 1
  23       10       22 1
  24       13       23 1
  25       14       24 1

@<TRIPOS>MOLECULE

  24   25
SMALL
USER_CHARGES
@<TRIPOS>ATOM
   1 O1           5.4898     1.0078     3.3638 O.3          1    LIG   0.0000
   2 C2           4.8171     1.0039     2.1936 C.ar         1    LIG   0.0000
   3 C3           5.5204     1.0005     0.9937 C.ar         1    LIG   0.0000
   4 C4           4.8128     0.9966    -0.2034 C.ar         1    LIG   0.0000
   5 C5           3.4222     0.9964    -0.2120 C.ar         1    LIG   0.0000
   6 C6           2.7397     1.0000     1.0000 C.ar         1    LIG   0.0000
   7 S7           1.0000     1.0000     1.0000 S.3          1    LIG   0.0000
   8 C8           0.6052    -0.7664     1.0055 C.3          1    LIG   0.0000
   9 C9           0.9726    -1.3713    -0.3379 C.2          1    LIG   0.0000
  10 C10          0.1301    -1.4716    -1.4666 C.2          1    LIG   0.0000
  11 N11          0.8371    -2.0526    -2.4088 N.2          1    LIG   0.0000
  12 N12          2.0603    -2.3308    -1.9820 N.pl3        1    LIG   0.0000
  13 C13          2.1711    -1.9260    -0.6850 C.2          1    LIG   0.0000
  14 C14          3.4262     1.0037     2.2097 C.ar         1    LIG   0.0000
  15 H            2.7816    -2.7653    -2.5213 H            1    LIG   0.0000
  16 H            6.4898     1.0080     3.3657 H            1    LIG   0.0000
  17 H            6.5204     1.0009     0.9919 H            1    LIG   0.0000
  18 H            5.3110     0.9939    -1.0704 H            1    LIG   0.0000
  19 H            2.9202     0.9937    -1.0769 H            1    LIG   0.0000
  20 H           -0.3737    -0.8887     1.1696 H            1    LIG   0.0000
  21 H            1.1239    -1.2217     1.7291 H            1    LIG   0.0000
  22 H           -0.8180    -1.1614    -1.5351 H            1    LIG   0.0000
  23 H            2.9765    -2.0178    -0.0994 H            1    LIG   0.0000
  24 H            2.9280     1.0063     3.0767 H            1    LIG   0.0000
@<TRIPOS>BOND
   1        1        2 1
   2        2        3 ar
   3        3        4 ar
   4        4        5 ar
   5        5        6 ar
   6        6        7 1
   7        7        8 1
   8        8        9 1
   9        9       10 1
  10       10       11 2
  11       11       12 1
  12       12       13 1
  13       13        9 2
  14        6       14 ar
  15       14        2 ar
  16       12       15 1
  17        1       16 1
  18        3       17 1
  19        4       18 1
  20        5       19 1
  21        8       20 1
  22        8       21 1
  23       10       22 1
  24       13       23 1
  25       14       24 1

@<TRIPOS>MOLECULE

  24   25
SMALL
USER_CHARGES
@<TRIPOS>ATOM
   1 O1           5.4898     1.0078     3.3638 O.3          1    LIG   0.0000
   2 C2           4.8171     1.0039     2.1936 C.ar         1    LIG   0.0000
   3 C3           5.5204     1.0005     0.9937 C.ar         1    LIG   0.0000
   4 C4           4.8128     0.9966    -0.2034 C.ar         1    LIG   0.0000
   5 C5           3.4222     0.9964    -0.2120 C.ar         1    LIG   0.0000
   6 C6           2.7397     1.0000     1.0000 C.ar         1    LIG   0.0000
   7 S7           1.0000     1.0000     1.0000 S.3          1    LIG   0.0000
   8 C8           0.6052    -0.7664     1.0055 C.3          1    LIG   0.0000
   9 C9           0.9726    -1.3630     2.3526 C.2          1    LIG   0.0000
  10 C10          2.2190    -1.9256     2.7043 C.2          1    LIG   0.0000
  11 N11          2.1117    -2.3178     3.9532 N.2          1    LIG   0.0000
  12 N12          0.9052    -2.0528     4.4326 N.pl3        1    LIG   0.0000
  13 C13          0.1658    -1.4650     3.4496 C.2          1    LIG   0.0000
  14 C14          3.4262     1.0037     2.2097 C.ar         1    LIG   0.0000
  15 H            0.5896    -2.2509     5.3606 H            1    LIG   0.0000
  16 H            6.4898     1.0080     3.3657 H            1    LIG   0.0000
  17 H            6.5204     1.0009     0.9919 H            1    LIG   0.0000
  18 H            5.3110     0.9939    -1.0704 H            1    LIG   0.0000
  19 H            2.9202     0.9937    -1.0769 H            1    LIG   0.0000
  20 H            1.1239    -1.2261     0.2847 H            1    LIG   0.0000
  21 H           -0.3737    -0.8897     0.8421 H            1    LIG   0.0000
  22 H            3.0247    -2.0090     2.1179 H            1    LIG   0.0000
  23 H           -0.7858    -1.1656     3.5187 H            1    LIG   0.0000
  24 H            2.9280     1.0063     3.0767 H            1    LIG   0.0000
@<TRIPOS>BOND
   1        1        2 1
   2        2        3 ar
   3        3        4 ar
   4        4        5 ar
   5        5        6 ar
   6        6        7 1
   7        7        8 1
   8        8        9 1
   9        9       10 1
  10       10       11 2
  11       11       12 1
  12       12       13 1
  13       13        9 2
  14        6       14 ar
  15       14        2 ar
  16       12       15 1
  17        1       16 1
  18        3       17 1
  19        4       18 1
  20        5       19 1
  21        8       20 1
  22        8       21 1
  23       10       22 1
  24       13       23 1
  25       14       24 1

@<TRIPOS>MOLECULE

  24   25
SMALL
USER_CHARGES
@<TRIPOS>ATOM
   1 O1           5.4898     0.9922    -1.3638 O.3          1    LIG   0.0000
   2 C2           4.8171     0.9961    -0.1936 C.ar         1    LIG   0.0000
   3 C3           5.5204     0.9995     1.0063 C.ar         1    LIG   0.0000
   4 C4           4.8128     1.0034     2.2034 C.ar         1    LIG   0.0000
   5 C5           3.4222     1.0036     2.2120 C.ar         1    LIG   0.0000
   6 C6           2.7397     1.0000     1.0000 C.ar         1    LIG   0.0000
   7 S7           1.0000     1.0000     1.0000 S.3          1    LIG   0.0000
   8 C8           0.6052    -0.7664     1.0055 C.3          1    LIG   0.0000
   9 C9          -0.2038    -1.1080    -0.2333 C.2          1    LIG   0.0000
  10 C10          0.3141    -1.5128    -1.4829 C.2          1    LIG   0.0000
  11 N11         -0.7198    -1.7085    -2.2690 N.2          1    LIG   0.0000
  12 N12         -1.8552    -1.4665    -1.6302 N.pl3        1    LIG   0.0000
  13 C13         -1.5634    -1.0777    -0.3565 C.2          1    LIG   0.0000
  14 C14          3.4262     0.9963    -0.2097 C.ar         1    LIG   0.0000
  15 H           -2.7728    -1.5545    -2.0176 H            1    LIG   0.0000
  16 H            6.4898     0.9920    -1.3657 H            1    LIG   0.0000
  17 H            6.5204     0.9991     1.0081 H            1    LIG   0.0000
  18 H            5.3110     1.0061     3.0704 H            1    LIG   0.0000
  19 H            2.9202     1.0063     3.0769 H            1    LIG   0.0000
  20 H            0.0724    -0.9863     1.8227 H            1    LIG   0.0000
  21 H            1.4525    -1.2974     1.0071 H            1    LIG   0.0000
  22 H            1.2781    -1.6277    -1.7224 H            1    LIG   0.0000
  23 H           -2.2199    -0.8194     0.3523 H            1    LIG   0.0000
  24 H            2.9280     0.9937    -1.0767 H            1    LIG   0.0000
@<TRIPOS>BOND
   1        1        2 1
   2        2        3 ar
   3        3        4 ar
   4        4        5 ar
   5        5        6 ar
   6        6        7 1
   7        7        8 1
   8        8        9 1
   9        9       10 1
  10       10       11 2
  11       11       12 1
  12       12       13 1
  13       13        9 2
  14        6       14 ar
  15       14        2 ar
  16       12       15 1
  17        1       16 1
  18        3       17 1
  19        4       18 1
  20        5       19 1
  21        8       20 1
  22        8       21 1
  23       10       22 1
  24       13       23 1
  25       14       24 1

@<TRIPOS>MOLECULE

  24   25
SMALL
USER_CHARGES
@<TRIPOS>ATOM
   1 O1           5.4898     0.9922    -1.3638 O.3          1    LIG   0.0000
   2 C2           4.8171     0.9961    -0.1936 C.ar         1    LIG   0.0000
   3 C3           5.5204     0.9995     1.0063 C.ar         1    LIG   0.0000
   4 C4           4.8128     1.0034     2.2034 C.ar         1    LIG   0.0000
   5 C5           3.4222     1.0036     2.2120 C.ar         1    LIG   0.0000
   6 C6           2.7397     1.0000     1.0000 C.ar         1    LIG   0.0000
   7 S7           1.0000     1.0000     1.0000 S.3          1    LIG   0.0000
   8 C8           0.6052    -0.7664     1.0055 C.3          1    LIG   0.0000
   9 C9           0.9726    -1.3713    -0.3379 C.2          1    LIG   0.0000
  10 C10          0.1301    -1.4716    -1.4666 C.2          1    LIG   0.0000
  11 N11          0.8371    -2.0526    -2.4088 N.2          1    LIG   0.0000
  12 N12          2.0603    -2.3308    -1.9820 N.pl3        1    LIG   0.0000
  13 C13          2.1711    -1.9260    -0.6850 C.2          1    LIG   0.0000
  14 C14          3.4262     0.9963    -0.2097 C.ar         1    LIG   0.0000
  15 H            2.7816    -2.7653    -2.5213 H            1    LIG   0.0000
  16 H            6.4898     0.9920    -1.3657 H            1    LIG   0.0000
  17 H            6.5204     0.9991     1.0081 H            1    LIG   0.0000
  18 H            5.3110     1.0061     3.0704 H            1    LIG   0.0000
  19 H            2.9202     1.0063     3.0769 H            1    LIG   0.0000
  20 H           -0.3737    -0.8887     1.1696 H            1    LIG   0.0000
  21 H            1.1239    -1.2217     1.7291 H            1    LIG   0.0000
  22 H           -0.8180    -1.1614    -1.5351 H            1    LIG   0.0000
  23 H            2.9765    -2.0178    -0.0994 H            1    LIG   0.0000
  24 H            2.9280     0.9937    -1.0767 H            1    LIG   0.0000
@<TRIPOS>BOND
   1        1        2 1
   2        2        3 ar
   3        3        4 ar
   4        4        5 ar
   5        5        6 ar
   6        6        7 1
   7        7        8 1
   8        8        9 1
   9        9       10 1
  10       10       11 2
  11       11       12 1
  12       12       13 1
  13       13        9 2
  14        6       14 ar
  15       14        2 ar
  16       12       15 1
  17        1       16 1
  18        3       17 1
  19        4       18 1
  20        5       19 1
  21        8       20 1
  22        8       21 1
  23       10       22 1
  24       13       23 1
  25       14       24 1

@<TRIPOS>MOLECULE

  24   25
SMALL
USER_CHARGES
@<TRIPOS>ATOM
   1 O1           5.4898     0.9922    -1.3638 O.3          1    LIG   0.0000
   2 C2           4.8171     0.9961    -0.1936 C.ar         1    LIG   0.0000
   3 C3           5.5204     0.9995     1.0063 C.ar         1    LIG   0.0000
   4 C4           4.8128     1.0034     2.2034 C.ar         1    LIG   0.0000
   5 C5           3.4222     1.0036     2.2120 C.ar         1    LIG   0.0000
   6 C6           2.7397     1.0000     1.0000 C.ar         1    LIG   0.0000
   7 S7           1.0000     1.0000     1.0000 S.3          1    LIG   0.0000
   8 C8           0.6052    -0.7664     1.0055 C.3          1    LIG   0.0000
   9 C9           0.9726    -1.3630     2.3526 C.2          1    LIG   0.0000
  10 C10          0.1301    -1.4563     3.4818 C.2          1    LIG   0.0000
  11 N11          0.8357    -2.0354     4.4262 N.2          1    LIG   0.0000
  12 N12          2.0563    -2.3234     3.9987 N.pl3        1    LIG   0.0000
  13 C13          2.1752    -1.9039     2.7071 C.2          1    LIG   0.0000
  14 C14          3.4262     0.9963    -0.2097 C.ar         1    LIG   0.0000
  15 H            2.7710    -2.7734     4.5342 H            1    LIG   0.0000
  16 H            6.4898     0.9920    -1.3657 H            1    LIG   0.0000
  17 H            6.5204     0.9991     1.0081 H            1    LIG   0.0000
  18 H            5.3110     1.0061     3.0704 H            1    LIG   0.0000
  19 H            2.9202     1.0063     3.0769 H            1    LIG   0.0000
  20 H            1.1239    -1.2261     0.2847 H            1    LIG   0.0000
  21 H           -0.3737    -0.8897     0.8421 H            1    LIG   0.0000
  22 H           -0.8171    -1.1431     3.5493 H            1    LIG   0.0000
  23 H            2.9882    -1.9780     2.1295 H            1    LIG   0.0000
  24 H            2.9280     0.9937    -1.0767 H            1    LIG   0.0000
@<TRIPOS>BOND
   1        1        2 1
   2        2        3 ar
   3        3        4 ar
   4        4        5 ar
   5        5        6 ar
   6        6        7 1
   7        7        8 1
   8        8        9 1
   9        9       10 1
  10       10       11 2
  11       11       12 1
  12       12       13 1
  13       13        9 2
  14        6       14 ar
  15       14        2 ar
  16       12       15 1
  17        1       16 1
  18        3       17 1
  19        4       18 1
  20        5       19 1
  21        8       20 1
  22        8       21 1
  23       10       22 1
  24       13       23 1
  25       14       24 1

