@<TRIPOS>MOLECULE
*****
 24 25 0 0 0
SMALL
USER_CHARGES

@<TRIPOS>ATOM
      1 O1          5.4898   -0.6770   -0.6660 O.3     1  LIG1        0.0000
      2 C2          4.8171    0.1532    0.1588 C.ar    1  LIG1        0.0000
      3 C3          5.5204    1.0041    1.0048 C.ar    1  LIG1        0.0000
      4 C4          4.8128    1.8533    1.8485 C.ar    1  LIG1        0.0000
      5 C5          3.4222    1.8596    1.8545 C.ar    1  LIG1        0.0000
      6 C6          2.7397    1.0000    1.0000 C.ar    1  LIG1        0.0000
      7 S7          1.0000    1.0000    1.0000 S.3     1  LIG1        0.0000
      8 C8          0.6052   -0.7664    1.0055 C.3     1  LIG1        0.0000
      9 C9          0.0169   -1.1494    2.3519 C.2     1  LIG1        0.0000
     10 C10        -0.4140   -2.4372    2.7386 C.2     1  LIG1        0.0000
     11 N11        -0.8489   -2.3295    3.9733 N.2     1  LIG1        0.0000
     12 N12        -0.7315   -1.0846    4.4116 N.pl3   1  LIG1        0.0000
     13 C13        -0.2028   -0.3202    3.4144 C.2     1  LIG1        0.0000
     14 C14         3.4262    0.1420    0.1473 C.ar    1  LIG1        0.0000
     15 H          -0.9880   -0.7600    5.3220 H       1  LIG1        0.0000
     16 H           6.4898   -0.6784   -0.6671 H       1  LIG1        0.0000
     17 H           6.5204    1.0051    1.0064 H       1  LIG1        0.0000
     18 H           5.3110    2.4683    2.4597 H       1  LIG1        0.0000
     19 H           2.9202    2.4730    2.4642 H       1  LIG1        0.0000
     20 H           1.4386   -1.2948    0.8434 H       1  LIG1        0.0000
     21 H          -0.0590   -0.9617    0.2838 H       1  LIG1        0.0000
     22 H          -0.3923   -3.2677    2.1821 H       1  LIG1        0.0000
     23 H          -0.0121    0.6607    3.4534 H       1  LIG1        0.0000
     24 H           2.9280   -0.4729   -0.4640 H       1  LIG1        0.0000
@<TRIPOS>BOND
     1     1     2    1
     2     2     3   ar
     3     3     4   ar
     4     4     5   ar
     5     5     6   ar
     6     6     7    1
     7     7     8    1
     8     8     9    1
     9     9    10    1
    10    10    11    2
    11    11    12    1
    12    12    13    1
    13    13     9    2
    14     6    14   ar
    15    14     2   ar
    16    12    15    1
    17     1    16    1
    18     3    17    1
    19     4    18    1
    20     5    19    1
    21     8    20    1
    22     8    21    1
    23    10    22    1
    24    13    23    1
    25    14    24    1
