@<TRIPOS>MOLECULE
*****
 24 25 0 0 0
SMALL
USER_CHARGES

@<TRIPOS>ATOM
      1 O1          5.4898   -1.3638    1.0078 O.3     1  LIG1        0.0000
      2 C2          4.8171   -0.1936    1.0039 C.ar    1  LIG1        0.0000
      3 C3          5.5204    1.0063    1.0005 C.ar    1  LIG1        0.0000
      4 C4          4.8128    2.2034    0.9966 C.ar    1  LIG1        0.0000
      5 C5          3.4222    2.2120    0.9964 C.ar    1  LIG1        0.0000
      6 C6          2.7397    1.0000    1.0000 C.ar    1  LIG1        0.0000
      7 S7          1.0000    1.0000    1.0000 S.3     1  LIG1        0.0000
      8 C8          0.6052   -0.7664    1.0055 C.3     1  LIG1        0.0000
      9 C9          0.9726   -1.3630    2.3526 C.2     1  LIG1        0.0000
     10 C10         1.5355   -0.6703    3.4466 C.2     1  LIG1        0.0000
     11 N11         1.6919   -1.5534    4.4062 N.2     1  LIG1        0.0000
     12 N12         1.2755   -2.7512    4.0223 N.pl3   1  LIG1        0.0000
     13 C13         0.8300   -2.6656    2.7367 C.2     1  LIG1        0.0000
     14 C14         3.4262   -0.2097    1.0037 C.ar    1  LIG1        0.0000
     15 H           1.2862   -3.5798    4.5821 H       1  LIG1        0.0000
     16 H           6.4898   -1.3657    1.0080 H       1  LIG1        0.0000
     17 H           6.5204    1.0081    1.0009 H       1  LIG1        0.0000
     18 H           5.3110    3.0704    0.9939 H       1  LIG1        0.0000
     19 H           2.9202    3.0769    0.9937 H       1  LIG1        0.0000
     20 H           1.1239   -1.2261    0.2847 H       1  LIG1        0.0000
     21 H          -0.3737   -0.8897    0.8421 H       1  LIG1        0.0000
     22 H           1.7691    0.3014    3.4836 H       1  LIG1        0.0000
     23 H           0.4679   -3.4140    2.1810 H       1  LIG1        0.0000
     24 H           2.9280   -1.0767    1.0063 H       1  LIG1        0.0000
@<TRIPOS>BOND
     1     1     2    1
     2     2     3   ar
     3     3     4   ar
     4     4     5   ar
     5     5     6   ar
     6     6     7    1
     7     7     8    1
     8     8     9    1
     9     9    10    1
    10    10    11    2
    11    11    12    1
    12    12    13    1
    13    13     9    2
    14     6    14   ar
    15    14     2   ar
    16    12    15    1
    17     1    16    1
    18     3    17    1
    19     4    18    1
    20     5    19    1
    21     8    20    1
    22     8    21    1
    23    10    22    1
    24    13    23    1
    25    14    24    1
