@<TRIPOS>MOLECULE
*****
 24 25 0 0 0
SMALL
USER_CHARGES

@<TRIPOS>ATOM
      1 O1          5.4898    3.3638    0.9922 O.3     1  LIG1        0.0000
      2 C2          4.8171    2.1936    0.9961 C.ar    1  LIG1        0.0000
      3 C3          5.5204    0.9937    0.9995 C.ar    1  LIG1        0.0000
      4 C4          4.8128   -0.2034    1.0034 C.ar    1  LIG1        0.0000
      5 C5          3.4222   -0.2120    1.0036 C.ar    1  LIG1        0.0000
      6 C6          2.7397    1.0000    1.0000 C.ar    1  LIG1        0.0000
      7 S7          1.0000    1.0000    1.0000 S.3     1  LIG1        0.0000
      8 C8          0.6052   -0.7664    1.0055 C.3     1  LIG1        0.0000
      9 C9          0.9726   -1.3713   -0.3379 C.2     1  LIG1        0.0000
     10 C10         1.5355   -0.6854   -1.4362 C.2     1  LIG1        0.0000
     11 N11         1.6960   -1.5753   -2.3888 N.2     1  LIG1        0.0000
     12 N12         1.2868   -2.7724   -1.9947 N.pl3   1  LIG1        0.0000
     13 C13         0.8181   -2.6736   -0.7184 C.2     1  LIG1        0.0000
     14 C14         3.4262    2.2097    0.9963 C.ar    1  LIG1        0.0000
     15 H           1.3169   -3.6087   -2.5422 H       1  LIG1        0.0000
     16 H           6.4898    3.3657    0.9920 H       1  LIG1        0.0000
     17 H           6.5204    0.9919    0.9991 H       1  LIG1        0.0000
     18 H           5.3110   -1.0704    1.0061 H       1  LIG1        0.0000
     19 H           2.9202   -1.0769    1.0063 H       1  LIG1        0.0000
     20 H          -0.3737   -0.8887    1.1696 H       1  LIG1        0.0000
     21 H           1.1239   -1.2217    1.7291 H       1  LIG1        0.0000
     22 H           1.7665    0.2866   -1.4802 H       1  LIG1        0.0000
     23 H           0.4343   -3.4137   -0.1662 H       1  LIG1        0.0000
     24 H           2.9280    3.0767    0.9937 H       1  LIG1        0.0000
@<TRIPOS>BOND
     1     1     2    1
     2     2     3   ar
     3     3     4   ar
     4     4     5   ar
     5     5     6   ar
     6     6     7    1
     7     7     8    1
     8     8     9    1
     9     9    10    1
    10    10    11    2
    11    11    12    1
    12    12    13    1
    13    13     9    2
    14     6    14   ar
    15    14     2   ar
    16    12    15    1
    17     1    16    1
    18     3    17    1
    19     4    18    1
    20     5    19    1
    21     8    20    1
    22     8    21    1
    23    10    22    1
    24    13    23    1
    25    14    24    1
