@<TRIPOS>MOLECULE
*****
 24 25 0 0 0
SMALL
USER_CHARGES

@<TRIPOS>ATOM
      1 O1          5.4898    0.9922   -1.3638 O.3     1  LIG1        0.0000
      2 C2          4.8171    0.9961   -0.1936 C.ar    1  LIG1        0.0000
      3 C3          5.5204    0.9995    1.0063 C.ar    1  LIG1        0.0000
      4 C4          4.8128    1.0034    2.2034 C.ar    1  LIG1        0.0000
      5 C5          3.4222    1.0036    2.2120 C.ar    1  LIG1        0.0000
      6 C6          2.7397    1.0000    1.0000 C.ar    1  LIG1        0.0000
      7 S7          1.0000    1.0000    1.0000 S.3     1  LIG1        0.0000
      8 C8          0.6052   -0.7664    1.0055 C.3     1  LIG1        0.0000
      9 C9         -0.2038   -1.1080   -0.2333 C.2     1  LIG1        0.0000
     10 C10         0.3141   -1.5128   -1.4829 C.2     1  LIG1        0.0000
     11 N11        -0.7198   -1.7085   -2.2690 N.2     1  LIG1        0.0000
     12 N12        -1.8552   -1.4665   -1.6302 N.pl3   1  LIG1        0.0000
     13 C13        -1.5634   -1.0777   -0.3565 C.2     1  LIG1        0.0000
     14 C14         3.4262    0.9963   -0.2097 C.ar    1  LIG1        0.0000
     15 H          -2.7728   -1.5545   -2.0176 H       1  LIG1        0.0000
     16 H           6.4898    0.9920   -1.3657 H       1  LIG1        0.0000
     17 H           6.5204    0.9991    1.0081 H       1  LIG1        0.0000
     18 H           5.3110    1.0061    3.0704 H       1  LIG1        0.0000
     19 H           2.9202    1.0063    3.0769 H       1  LIG1        0.0000
     20 H           0.0724   -0.9863    1.8227 H       1  LIG1        0.0000
     21 H           1.4525   -1.2974    1.0071 H       1  LIG1        0.0000
     22 H           1.2781   -1.6277   -1.7224 H       1  LIG1        0.0000
     23 H          -2.2199   -0.8194    0.3523 H       1  LIG1        0.0000
     24 H           2.9280    0.9937   -1.0767 H       1  LIG1        0.0000
@<TRIPOS>BOND
     1     1     2    1
     2     2     3   ar
     3     3     4   ar
     4     4     5   ar
     5     5     6   ar
     6     6     7    1
     7     7     8    1
     8     8     9    1
     9     9    10    1
    10    10    11    2
    11    11    12    1
    12    12    13    1
    13    13     9    2
    14     6    14   ar
    15    14     2   ar
    16    12    15    1
    17     1    16    1
    18     3    17    1
    19     4    18    1
    20     5    19    1
    21     8    20    1
    22     8    21    1
    23    10    22    1
    24    13    23    1
    25    14    24    1
