@<TRIPOS>MOLECULE
*****
 24 25 0 0 0
SMALL
USER_CHARGES

@<TRIPOS>ATOM
      1 O1          5.4898    1.0078    3.3638 O.3     1  LIG1        0.0000
      2 C2          4.8171    1.0039    2.1936 C.ar    1  LIG1        0.0000
      3 C3          5.5204    1.0005    0.9937 C.ar    1  LIG1        0.0000
      4 C4          4.8128    0.9966   -0.2034 C.ar    1  LIG1        0.0000
      5 C5          3.4222    0.9964   -0.2120 C.ar    1  LIG1        0.0000
      6 C6          2.7397    1.0000    1.0000 C.ar    1  LIG1        0.0000
      7 S7          1.0000    1.0000    1.0000 S.3     1  LIG1        0.0000
      8 C8          0.6052   -0.7664    1.0055 C.3     1  LIG1        0.0000
      9 C9          0.9726   -1.3713   -0.3379 C.2     1  LIG1        0.0000
     10 C10         0.1301   -1.4716   -1.4666 C.2     1  LIG1        0.0000
     11 N11         0.8371   -2.0526   -2.4088 N.2     1  LIG1        0.0000
     12 N12         2.0603   -2.3308   -1.9820 N.pl3   1  LIG1        0.0000
     13 C13         2.1711   -1.9260   -0.6850 C.2     1  LIG1        0.0000
     14 C14         3.4262    1.0037    2.2097 C.ar    1  LIG1        0.0000
     15 H           2.7816   -2.7653   -2.5213 H       1  LIG1        0.0000
     16 H           6.4898    1.0080    3.3657 H       1  LIG1        0.0000
     17 H           6.5204    1.0009    0.9919 H       1  LIG1        0.0000
     18 H           5.3110    0.9939   -1.0704 H       1  LIG1        0.0000
     19 H           2.9202    0.9937   -1.0769 H       1  LIG1        0.0000
     20 H          -0.3737   -0.8887    1.1696 H       1  LIG1        0.0000
     21 H           1.1239   -1.2217    1.7291 H       1  LIG1        0.0000
     22 H          -0.8180   -1.1614   -1.5351 H       1  LIG1        0.0000
     23 H           2.9765   -2.0178   -0.0994 H       1  LIG1        0.0000
     24 H           2.9280    1.0063    3.0767 H       1  LIG1        0.0000
@<TRIPOS>BOND
     1     1     2    1
     2     2     3   ar
     3     3     4   ar
     4     4     5   ar
     5     5     6   ar
     6     6     7    1
     7     7     8    1
     8     8     9    1
     9     9    10    1
    10    10    11    2
    11    11    12    1
    12    12    13    1
    13    13     9    2
    14     6    14   ar
    15    14     2   ar
    16    12    15    1
    17     1    16    1
    18     3    17    1
    19     4    18    1
    20     5    19    1
    21     8    20    1
    22     8    21    1
    23    10    22    1
    24    13    23    1
    25    14    24    1
