@<TRIPOS>MOLECULE
*****
 24 25 0 0 0
SMALL
USER_CHARGES

@<TRIPOS>ATOM
      1 O1          5.4898   -0.6660    2.6770 O.3     1  LIG1        0.0000
      2 C2          4.8171    0.1588    1.8468 C.ar    1  LIG1        0.0000
      3 C3          5.5204    1.0048    0.9959 C.ar    1  LIG1        0.0000
      4 C4          4.8128    1.8485    0.1467 C.ar    1  LIG1        0.0000
      5 C5          3.4222    1.8545    0.1404 C.ar    1  LIG1        0.0000
      6 C6          2.7397    1.0000    1.0000 C.ar    1  LIG1        0.0000
      7 S7          1.0000    1.0000    1.0000 S.3     1  LIG1        0.0000
      8 C8          0.6052   -0.7664    1.0055 C.3     1  LIG1        0.0000
      9 C9         -0.2038   -1.1080   -0.2333 C.2     1  LIG1        0.0000
     10 C10        -0.6975   -2.3841   -0.5820 C.2     1  LIG1        0.0000
     11 N11        -1.3388   -2.2376   -1.7188 N.2     1  LIG1        0.0000
     12 N12        -1.3008   -0.9776   -2.1270 N.pl3   1  LIG1        0.0000
     13 C13        -0.5871   -0.2486   -1.2227 C.2     1  LIG1        0.0000
     14 C14         3.4262    0.1473    1.8580 C.ar    1  LIG1        0.0000
     15 H          -1.7248   -0.6209   -2.9595 H       1  LIG1        0.0000
     16 H           6.4898   -0.6671    2.6784 H       1  LIG1        0.0000
     17 H           6.5204    1.0064    0.9949 H       1  LIG1        0.0000
     18 H           5.3110    2.4597   -0.4683 H       1  LIG1        0.0000
     19 H           2.9202    2.4642   -0.4730 H       1  LIG1        0.0000
     20 H           0.0724   -0.9863    1.8227 H       1  LIG1        0.0000
     21 H           1.4525   -1.2974    1.0071 H       1  LIG1        0.0000
     22 H          -0.5816   -3.2324   -0.0653 H       1  LIG1        0.0000
     23 H          -0.3832    0.7290   -1.2742 H       1  LIG1        0.0000
     24 H           2.9280   -0.4640    2.4729 H       1  LIG1        0.0000
@<TRIPOS>BOND
     1     1     2    1
     2     2     3   ar
     3     3     4   ar
     4     4     5   ar
     5     5     6   ar
     6     6     7    1
     7     7     8    1
     8     8     9    1
     9     9    10    1
    10    10    11    2
    11    11    12    1
    12    12    13    1
    13    13     9    2
    14     6    14   ar
    15    14     2   ar
    16    12    15    1
    17     1    16    1
    18     3    17    1
    19     4    18    1
    20     5    19    1
    21     8    20    1
    22     8    21    1
    23    10    22    1
    24    13    23    1
    25    14    24    1
