@<TRIPOS>MOLECULE

  69   71
SMALL
USER_CHARGES
@<TRIPOS>ATOM
   1 C1          -1.1823     0.8885    -3.6245 C.3          1    LIG   0.0000
   2 C2          -1.3339     1.8333    -2.4435 C.3          1    LIG   0.0000
   3 O3          -1.3363     1.0855    -1.2363 O.3          1    LIG   0.0000
   4 C4          -1.4616     1.7882    -0.1379 C.2          1    LIG   0.0000
   5 O5          -1.5645     2.9823    -0.1979 O.2          1    LIG   0.0000
   6 C6          -1.4761     1.1232     1.1506 C.2          1    LIG   0.0000
   7 C7          -0.3274     0.7489     1.7000 C.2          1    LIG   0.0000
   8 C8           1.0000     1.0000     1.0000 C.3          1    LIG   0.0000
   9 N9           1.8499     1.8499     1.8499 N.3          1    LIG   0.0000
  10 C10          1.2991     3.2122     1.9023 C.3          1    LIG   0.0000
  11 C11          2.1442     4.0928     2.8089 C.3          1    LIG   0.0000
  12 C12          3.5823     4.1269     2.3171 C.3          1    LIG   0.0000
  13 C13          4.4413     4.9904     3.2309 C.2          1    LIG   0.0000
  14 O14          3.9500     5.5276     4.1849 O.2          1    LIG   0.0000
  15 N15          5.7750     5.1541     2.9639 N.am         1    LIG   0.0000
  16 C16          6.6043     5.9877     3.8460 C.3          1    LIG   0.0000
  17 C17          7.2011     7.1341     3.0459 C.3          1    LIG   0.0000
  18 C18          7.7233     5.1445     4.4351 C.3          1    LIG   0.0000
  19 C19          8.5808     6.0065     5.3473 C.3          1    LIG   0.0000
  20 C20          7.1265     3.9981     5.2352 C.3          1    LIG   0.0000
  21 C21          4.1135     2.7028     2.2885 C.3          1    LIG   0.0000
  22 C22          3.2455     1.8397     1.3868 C.3          1    LIG   0.0000
  23 N23         -0.2925     0.1209     2.9503 N.am         1    LIG   0.0000
  24 C24         -1.4722    -0.1292     3.6640 C.2          1    LIG   0.0000
  25 O25         -1.4391    -0.6771     4.7527 O.2          1    LIG   0.0000
  26 N26         -2.7187     0.2429     3.1394 N.am         1    LIG   0.0000
  27 C27         -2.8205     0.8892     1.8229 C.3          1    LIG   0.0000
  28 C28         -3.6442     2.1653     1.8827 C.ar         1    LIG   0.0000
  29 C29         -4.5286     2.4614     0.8513 C.ar         1    LIG   0.0000
  30 C30         -5.2865     3.6269     0.8978 C.ar         1    LIG   0.0000
  31 C31         -5.1455     4.4850     1.9836 C.ar         1    LIG   0.0000
  32 Cl32        -6.1114     5.9784     2.0499 Cl           1    LIG   0.0000
  33 C33         -4.2629     4.1978     3.0195 C.ar         1    LIG   0.0000
  34 C34         -3.5094     3.0289     2.9642 C.ar         1    LIG   0.0000
  35 H            6.0396     6.3554     4.5849 H            1    LIG   0.0000
  36 H           -3.3237     0.2556     1.2353 H            1    LIG   0.0000
  37 H           -1.1806     1.4151    -4.4746 H            1    LIG   0.0000
  38 H           -0.3213     0.3867    -3.5415 H            1    LIG   0.0000
  39 H           -1.9453     0.2422    -3.6343 H            1    LIG   0.0000
  40 H           -0.5709     2.4797    -2.4336 H            1    LIG   0.0000
  41 H           -2.1949     2.3352    -2.5264 H            1    LIG   0.0000
  42 H            1.4601     0.1276     0.8350 H            1    LIG   0.0000
  43 H            0.8350     1.4601     0.1276 H            1    LIG   0.0000
  44 H            0.3646     3.1761     2.2563 H            1    LIG   0.0000
  45 H            1.2916     3.6000     0.9805 H            1    LIG   0.0000
  46 H            1.7725     5.0212     2.8073 H            1    LIG   0.0000
  47 H            2.1219     3.7265     3.7391 H            1    LIG   0.0000
  48 H            3.6043     4.5047     1.3915 H            1    LIG   0.0000
  49 H            6.1844     4.7064     2.1688 H            1    LIG   0.0000
  50 H            7.7652     7.7012     3.6461 H            1    LIG   0.0000
  51 H            7.7658     6.7664     2.3071 H            1    LIG   0.0000
  52 H            6.4649     7.6888     2.6584 H            1    LIG   0.0000
  53 H            8.2880     4.7768     3.6963 H            1    LIG   0.0000
  54 H            9.3171     5.4517     5.7349 H            1    LIG   0.0000
  55 H            8.9735     6.7607     4.8210 H            1    LIG   0.0000
  56 H            8.0161     6.3742     6.0862 H            1    LIG   0.0000
  57 H            7.8628     3.4434     5.6228 H            1    LIG   0.0000
  58 H            6.5618     4.3658     5.9741 H            1    LIG   0.0000
  59 H            6.5624     3.4310     4.6351 H            1    LIG   0.0000
  60 H            4.1034     2.3273     3.2153 H            1    LIG   0.0000
  61 H            5.0509     2.7064     1.9405 H            1    LIG   0.0000
  62 H            3.2849     2.1961     0.4533 H            1    LIG   0.0000
  63 H            3.5895     0.9008     1.3999 H            1    LIG   0.0000
  64 H            0.5868    -0.1531     3.3399 H            1    LIG   0.0000
  65 H           -3.5491     0.0661     3.6678 H            1    LIG   0.0000
  66 H           -4.6197     1.8363     0.0761 H            1    LIG   0.0000
  67 H           -5.9249     3.8452     0.1597 H            1    LIG   0.0000
  68 H           -4.1708     4.8234     3.7942 H            1    LIG   0.0000
  69 H           -2.8711     2.8102     3.7023 H            1    LIG   0.0000
@<TRIPOS>BOND
   1        1        2 1
   2        2        3 1
   3        3        4 1
   4        4        5 2
   5        4        6 1
   6        6        7 2
   7        7        8 1
   8        8        9 1
   9        9       10 1
  10       10       11 1
  11       11       12 1
  12       12       13 1
  13       13       14 2
  14       13       15 am
  15       15       16 1
  16       16       17 1
  17       16       18 1
  18       18       19 1
  19       18       20 1
  20       12       21 1
  21       21       22 1
  22       22        9 1
  23        7       23 1
  24       23       24 am
  25       24       25 2
  26       24       26 am
  27       26       27 1
  28       27        6 1
  29       27       28 1
  30       28       29 ar
  31       29       30 ar
  32       30       31 ar
  33       31       32 1
  34       31       33 ar
  35       33       34 ar
  36       34       28 ar
  37       16       35 1
  38       27       36 1
  39        1       37 1
  40        1       38 1
  41        1       39 1
  42        2       40 1
  43        2       41 1
  44        8       42 1
  45        8       43 1
  46       10       44 1
  47       10       45 1
  48       11       46 1
  49       11       47 1
  50       12       48 1
  51       15       49 1
  52       17       50 1
  53       17       51 1
  54       17       52 1
  55       18       53 1
  56       19       54 1
  57       19       55 1
  58       19       56 1
  59       20       57 1
  60       20       58 1
  61       20       59 1
  62       21       60 1
  63       21       61 1
  64       22       62 1
  65       22       63 1
  66       23       64 1
  67       26       65 1
  68       29       66 1
  69       30       67 1
  70       33       68 1
  71       34       69 1

@<TRIPOS>MOLECULE

  69   71
SMALL
USER_CHARGES
@<TRIPOS>ATOM
   1 C1          -1.1823     0.8885    -3.6245 C.3          1    LIG   0.0000
   2 C2          -1.3339     1.8333    -2.4435 C.3          1    LIG   0.0000
   3 O3          -1.3363     1.0855    -1.2363 O.3          1    LIG   0.0000
   4 C4          -1.4616     1.7882    -0.1379 C.2          1    LIG   0.0000
   5 O5          -1.5645     2.9823    -0.1979 O.2          1    LIG   0.0000
   6 C6          -1.4761     1.1232     1.1506 C.2          1    LIG   0.0000
   7 C7          -0.3274     0.7489     1.7000 C.2          1    LIG   0.0000
   8 C8           1.0000     1.0000     1.0000 C.3          1    LIG   0.0000
   9 N9           1.8499     1.8499     1.8499 N.3          1    LIG   0.0000
  10 C10          1.2991     3.2122     1.9023 C.3          1    LIG   0.0000
  11 C11          2.1442     4.0928     2.8089 C.3          1    LIG   0.0000
  12 C12          3.5823     4.1269     2.3171 C.3          1    LIG   0.0000
  13 C13          4.4413     4.9904     3.2309 C.2          1    LIG   0.0000
  14 O14          5.3840     4.5108     3.7977 O.2          1    LIG   0.0000
  15 N15          4.1379     6.3149     3.4059 N.am         1    LIG   0.0000
  16 C16          4.9672     7.1485     4.2881 C.3          1    LIG   0.0000
  17 C17          4.1088     7.7074     5.4111 C.3          1    LIG   0.0000
  18 C18          5.5640     8.2949     3.4880 C.3          1    LIG   0.0000
  19 C19          6.4215     9.1569     4.4002 C.3          1    LIG   0.0000
  20 C20          6.4223     7.7360     2.3649 C.3          1    LIG   0.0000
  21 C21          4.1135     2.7028     2.2885 C.3          1    LIG   0.0000
  22 C22          3.2455     1.8397     1.3868 C.3          1    LIG   0.0000
  23 N23         -0.2925     0.1209     2.9503 N.am         1    LIG   0.0000
  24 C24         -1.4722    -0.1292     3.6640 C.2          1    LIG   0.0000
  25 O25         -1.4391    -0.6771     4.7527 O.2          1    LIG   0.0000
  26 N26         -2.7187     0.2429     3.1394 N.am         1    LIG   0.0000
  27 C27         -2.8205     0.8892     1.8229 C.3          1    LIG   0.0000
  28 C28         -3.6442     2.1653     1.8827 C.ar         1    LIG   0.0000
  29 C29         -4.5286     2.4614     0.8513 C.ar         1    LIG   0.0000
  30 C30         -5.2865     3.6269     0.8978 C.ar         1    LIG   0.0000
  31 C31         -5.1455     4.4850     1.9836 C.ar         1    LIG   0.0000
  32 Cl32        -6.1114     5.9784     2.0499 Cl           1    LIG   0.0000
  33 C33         -4.2629     4.1978     3.0195 C.ar         1    LIG   0.0000
  34 C34         -3.5094     3.0289     2.9642 C.ar         1    LIG   0.0000
  35 H            5.7034     6.5938     4.6757 H            1    LIG   0.0000
  36 H           -3.3237     0.2556     1.2353 H            1    LIG   0.0000
  37 H           -1.1806     1.4151    -4.4746 H            1    LIG   0.0000
  38 H           -0.3213     0.3867    -3.5415 H            1    LIG   0.0000
  39 H           -1.9453     0.2422    -3.6343 H            1    LIG   0.0000
  40 H           -0.5709     2.4797    -2.4336 H            1    LIG   0.0000
  41 H           -2.1949     2.3352    -2.5264 H            1    LIG   0.0000
  42 H            1.4601     0.1276     0.8350 H            1    LIG   0.0000
  43 H            0.8350     1.4601     0.1276 H            1    LIG   0.0000
  44 H            0.3646     3.1761     2.2563 H            1    LIG   0.0000
  45 H            1.2916     3.6000     0.9805 H            1    LIG   0.0000
  46 H            1.7725     5.0212     2.8073 H            1    LIG   0.0000
  47 H            2.1219     3.7265     3.7391 H            1    LIG   0.0000
  48 H            3.6043     4.5047     1.3915 H            1    LIG   0.0000
  49 H            3.3523     6.7145     2.9336 H            1    LIG   0.0000
  50 H            4.6730     8.2745     6.0112 H            1    LIG   0.0000
  51 H            3.3726     8.2621     5.0235 H            1    LIG   0.0000
  52 H            3.7162     6.9532     5.9375 H            1    LIG   0.0000
  53 H            4.8277     8.8496     3.1004 H            1    LIG   0.0000
  54 H            6.8141     9.9111     3.8738 H            1    LIG   0.0000
  55 H            5.8568     9.5245     5.1390 H            1    LIG   0.0000
  56 H            7.1577     8.6021     4.7878 H            1    LIG   0.0000
  57 H            6.8149     8.4902     1.8386 H            1    LIG   0.0000
  58 H            7.1585     7.1813     2.7525 H            1    LIG   0.0000
  59 H            5.8582     7.1689     1.7648 H            1    LIG   0.0000
  60 H            4.1034     2.3273     3.2153 H            1    LIG   0.0000
  61 H            5.0509     2.7064     1.9405 H            1    LIG   0.0000
  62 H            3.2849     2.1961     0.4533 H            1    LIG   0.0000
  63 H            3.5895     0.9008     1.3999 H            1    LIG   0.0000
  64 H            0.5868    -0.1531     3.3399 H            1    LIG   0.0000
  65 H           -3.5491     0.0661     3.6678 H            1    LIG   0.0000
  66 H           -4.6197     1.8363     0.0761 H            1    LIG   0.0000
  67 H           -5.9249     3.8452     0.1597 H            1    LIG   0.0000
  68 H           -4.1708     4.8234     3.7942 H            1    LIG   0.0000
  69 H           -2.8711     2.8102     3.7023 H            1    LIG   0.0000
@<TRIPOS>BOND
   1        1        2 1
   2        2        3 1
   3        3        4 1
   4        4        5 2
   5        4        6 1
   6        6        7 2
   7        7        8 1
   8        8        9 1
   9        9       10 1
  10       10       11 1
  11       11       12 1
  12       12       13 1
  13       13       14 2
  14       13       15 am
  15       15       16 1
  16       16       17 1
  17       16       18 1
  18       18       19 1
  19       18       20 1
  20       12       21 1
  21       21       22 1
  22       22        9 1
  23        7       23 1
  24       23       24 am
  25       24       25 2
  26       24       26 am
  27       26       27 1
  28       27        6 1
  29       27       28 1
  30       28       29 ar
  31       29       30 ar
  32       30       31 ar
  33       31       32 1
  34       31       33 ar
  35       33       34 ar
  36       34       28 ar
  37       16       35 1
  38       27       36 1
  39        1       37 1
  40        1       38 1
  41        1       39 1
  42        2       40 1
  43        2       41 1
  44        8       42 1
  45        8       43 1
  46       10       44 1
  47       10       45 1
  48       11       46 1
  49       11       47 1
  50       12       48 1
  51       15       49 1
  52       17       50 1
  53       17       51 1
  54       17       52 1
  55       18       53 1
  56       19       54 1
  57       19       55 1
  58       19       56 1
  59       20       57 1
  60       20       58 1
  61       20       59 1
  62       21       60 1
  63       21       61 1
  64       22       62 1
  65       22       63 1
  66       23       64 1
  67       26       65 1
  68       29       66 1
  69       30       67 1
  70       33       68 1
  71       34       69 1

@<TRIPOS>MOLECULE

  69   71
SMALL
USER_CHARGES
@<TRIPOS>ATOM
   1 C1           3.0654    -3.2568     2.9428 C.3          1    LIG   0.0000
   2 C2           1.9159    -3.0260     1.9754 C.3          1    LIG   0.0000
   3 O3           1.1514    -1.9096     2.4064 O.3          1    LIG   0.0000
   4 C4           0.1244    -1.6045     1.6526 C.2          1    LIG   0.0000
   5 O5          -0.1147    -2.2544     0.6726 O.2          1    LIG   0.0000
   6 C6          -0.7233    -0.4813     2.0023 C.2          1    LIG   0.0000
   7 C7          -0.3274     0.7489     1.7000 C.2          1    LIG   0.0000
   8 C8           1.0000     1.0000     1.0000 C.3          1    LIG   0.0000
   9 N9           1.8499     1.8499     1.8499 N.3          1    LIG   0.0000
  10 C10          2.8942     2.4861     1.0333 C.3          1    LIG   0.0000
  11 C11          3.7565     3.3991     1.8902 C.3          1    LIG   0.0000
  12 C12          4.3870     2.6117     3.0277 C.3          1    LIG   0.0000
  13 C13          5.2367     3.5220     3.9038 C.2          1    LIG   0.0000
  14 O14          5.3294     4.6897     3.6433 O.2          1    LIG   0.0000
  15 N15          5.8955     3.0080     4.9895 N.am         1    LIG   0.0000
  16 C16          6.7158     3.8868     5.8353 C.3          1    LIG   0.0000
  17 C17          8.1540     3.3947     5.8324 C.3          1    LIG   0.0000
  18 C18          6.1772     3.8692     7.2566 C.3          1    LIG   0.0000
  19 C19          7.0255     4.7780     8.1312 C.3          1    LIG   0.0000
  20 C20          4.7391     4.3613     7.2595 C.3          1    LIG   0.0000
  21 C21          3.2741     1.9813     3.8494 C.3          1    LIG   0.0000
  22 C22          2.4188     1.0842     2.9690 C.3          1    LIG   0.0000
  23 N23         -1.1219     1.8609     2.0018 N.am         1    LIG   0.0000
  24 C24         -2.3648     1.7088     2.6307 C.2          1    LIG   0.0000
  25 O25         -3.0547     2.6792     2.8932 O.2          1    LIG   0.0000
  26 N26         -2.8417     0.4354     2.9753 N.am         1    LIG   0.0000
  27 C27         -2.0442    -0.7686     2.7003 C.3          1    LIG   0.0000
  28 C28         -2.8501    -1.8222     1.9581 C.ar         1    LIG   0.0000
  29 C29         -2.7031    -3.1632     2.2950 C.ar         1    LIG   0.0000
  30 C30         -3.4367    -4.1343     1.6212 C.ar         1    LIG   0.0000
  31 C31         -4.3118    -3.7450     0.6123 C.ar         1    LIG   0.0000
  32 Cl32        -5.2534    -4.9816    -0.2548 Cl           1    LIG   0.0000
  33 C33         -4.4648    -2.4062     0.2676 C.ar         1    LIG   0.0000
  34 C34         -3.7269    -1.4420     0.9480 C.ar         1    LIG   0.0000
  35 H            6.6822     4.8201     5.4776 H            1    LIG   0.0000
  36 H           -1.8136    -1.1638     3.5895 H            1    LIG   0.0000
  37 H            3.6037    -4.0430     2.6392 H            1    LIG   0.0000
  38 H            3.6475    -2.4442     2.9686 H            1    LIG   0.0000
  39 H            2.7011    -3.4351     3.8568 H            1    LIG   0.0000
  40 H            2.2801    -2.8477     1.0613 H            1    LIG   0.0000
  41 H            1.3337    -3.8387     1.9496 H            1    LIG   0.0000
  42 H            1.4601     0.1276     0.8350 H            1    LIG   0.0000
  43 H            0.8350     1.4601     0.1276 H            1    LIG   0.0000
  44 H            2.4634     3.0245     0.3091 H            1    LIG   0.0000
  45 H            3.4697     1.7778     0.6247 H            1    LIG   0.0000
  46 H            4.4785     3.7978     1.3247 H            1    LIG   0.0000
  47 H            3.1885     4.1295     2.2694 H            1    LIG   0.0000
  48 H            4.9643     1.8893     2.6470 H            1    LIG   0.0000
  49 H            5.8183     2.0349     5.2065 H            1    LIG   0.0000
  50 H            8.7120     3.9926     6.4078 H            1    LIG   0.0000
  51 H            8.1877     2.4615     6.1901 H            1    LIG   0.0000
  52 H            8.5084     3.4063     4.8974 H            1    LIG   0.0000
  53 H            6.2109     2.9360     7.6143 H            1    LIG   0.0000
  54 H            6.6711     4.7664     9.0662 H            1    LIG   0.0000
  55 H            7.9716     4.4542     8.1293 H            1    LIG   0.0000
  56 H            6.9918     5.7112     7.7735 H            1    LIG   0.0000
  57 H            4.3847     4.3497     8.1945 H            1    LIG   0.0000
  58 H            4.7054     5.2946     6.9018 H            1    LIG   0.0000
  59 H            4.1810     3.7635     6.6841 H            1    LIG   0.0000
  60 H            2.7027     2.7026     4.2407 H            1    LIG   0.0000
  61 H            3.6748     1.4368     4.5862 H            1    LIG   0.0000
  62 H            2.9843     0.3432     2.6067 H            1    LIG   0.0000
  63 H            1.6752     0.6992     3.5157 H            1    LIG   0.0000
  64 H           -0.7980     2.7769     1.7653 H            1    LIG   0.0000
  65 H           -3.7359     0.3454     3.4138 H            1    LIG   0.0000
  66 H           -2.0700    -3.4297     3.0217 H            1    LIG   0.0000
  67 H           -3.3362    -5.1003     1.8592 H            1    LIG   0.0000
  68 H           -5.0970    -2.1397    -0.4599 H            1    LIG   0.0000
  69 H           -3.8273    -0.4758     0.7105 H            1    LIG   0.0000
@<TRIPOS>BOND
   1        1        2 1
   2        2        3 1
   3        3        4 1
   4        4        5 2
   5        4        6 1
   6        6        7 2
   7        7        8 1
   8        8        9 1
   9        9       10 1
  10       10       11 1
  11       11       12 1
  12       12       13 1
  13       13       14 2
  14       13       15 am
  15       15       16 1
  16       16       17 1
  17       16       18 1
  18       18       19 1
  19       18       20 1
  20       12       21 1
  21       21       22 1
  22       22        9 1
  23        7       23 1
  24       23       24 am
  25       24       25 2
  26       24       26 am
  27       26       27 1
  28       27        6 1
  29       27       28 1
  30       28       29 ar
  31       29       30 ar
  32       30       31 ar
  33       31       32 1
  34       31       33 ar
  35       33       34 ar
  36       34       28 ar
  37       16       35 1
  38       27       36 1
  39        1       37 1
  40        1       38 1
  41        1       39 1
  42        2       40 1
  43        2       41 1
  44        8       42 1
  45        8       43 1
  46       10       44 1
  47       10       45 1
  48       11       46 1
  49       11       47 1
  50       12       48 1
  51       15       49 1
  52       17       50 1
  53       17       51 1
  54       17       52 1
  55       18       53 1
  56       19       54 1
  57       19       55 1
  58       19       56 1
  59       20       57 1
  60       20       58 1
  61       20       59 1
  62       21       60 1
  63       21       61 1
  64       22       62 1
  65       22       63 1
  66       23       64 1
  67       26       65 1
  68       29       66 1
  69       30       67 1
  70       33       68 1
  71       34       69 1

@<TRIPOS>MOLECULE

  69   71
SMALL
USER_CHARGES
@<TRIPOS>ATOM
   1 C1           3.0654    -3.2568     2.9428 C.3          1    LIG   0.0000
   2 C2           1.9159    -3.0260     1.9754 C.3          1    LIG   0.0000
   3 O3           1.1514    -1.9096     2.4064 O.3          1    LIG   0.0000
   4 C4           0.1244    -1.6045     1.6526 C.2          1    LIG   0.0000
   5 O5          -0.1147    -2.2544     0.6726 O.2          1    LIG   0.0000
   6 C6          -0.7233    -0.4813     2.0023 C.2          1    LIG   0.0000
   7 C7          -0.3274     0.7489     1.7000 C.2          1    LIG   0.0000
   8 C8           1.0000     1.0000     1.0000 C.3          1    LIG   0.0000
   9 N9           1.8499     1.8499     1.8499 N.3          1    LIG   0.0000
  10 C10          2.8942     2.4861     1.0333 C.3          1    LIG   0.0000
  11 C11          3.7565     3.3991     1.8902 C.3          1    LIG   0.0000
  12 C12          4.3870     2.6117     3.0277 C.3          1    LIG   0.0000
  13 C13          5.2367     3.5220     3.9038 C.2          1    LIG   0.0000
  14 O14          4.9759     3.6483     5.0683 O.2          1    LIG   0.0000
  15 N15          6.2990     4.1969     3.3627 N.am         1    LIG   0.0000
  16 C16          7.1194     5.0758     4.2085 C.3          1    LIG   0.0000
  17 C17          7.0682     6.4943     3.6648 C.3          1    LIG   0.0000
  18 C18          8.5575     4.5837     4.2056 C.3          1    LIG   0.0000
  19 C19          9.4058     5.4925     5.0802 C.3          1    LIG   0.0000
  20 C20          8.6087     3.1652     4.7493 C.3          1    LIG   0.0000
  21 C21          3.2741     1.9813     3.8494 C.3          1    LIG   0.0000
  22 C22          2.4188     1.0842     2.9690 C.3          1    LIG   0.0000
  23 N23         -1.1219     1.8609     2.0018 N.am         1    LIG   0.0000
  24 C24         -2.3648     1.7088     2.6307 C.2          1    LIG   0.0000
  25 O25         -3.0547     2.6792     2.8932 O.2          1    LIG   0.0000
  26 N26         -2.8417     0.4354     2.9753 N.am         1    LIG   0.0000
  27 C27         -2.0442    -0.7686     2.7003 C.3          1    LIG   0.0000
  28 C28         -2.8501    -1.8222     1.9581 C.ar         1    LIG   0.0000
  29 C29         -2.7031    -3.1632     2.2950 C.ar         1    LIG   0.0000
  30 C30         -3.4367    -4.1343     1.6212 C.ar         1    LIG   0.0000
  31 C31         -4.3118    -3.7450     0.6123 C.ar         1    LIG   0.0000
  32 Cl32        -5.2534    -4.9816    -0.2548 Cl           1    LIG   0.0000
  33 C33         -4.4648    -2.4062     0.2676 C.ar         1    LIG   0.0000
  34 C34         -3.7269    -1.4420     0.9480 C.ar         1    LIG   0.0000
  35 H            6.7650     5.0642     5.1435 H            1    LIG   0.0000
  36 H           -1.8136    -1.1638     3.5895 H            1    LIG   0.0000
  37 H            3.6037    -4.0430     2.6392 H            1    LIG   0.0000
  38 H            3.6475    -2.4442     2.9686 H            1    LIG   0.0000
  39 H            2.7011    -3.4351     3.8568 H            1    LIG   0.0000
  40 H            2.2801    -2.8477     1.0613 H            1    LIG   0.0000
  41 H            1.3337    -3.8387     1.9496 H            1    LIG   0.0000
  42 H            1.4601     0.1276     0.8350 H            1    LIG   0.0000
  43 H            0.8350     1.4601     0.1276 H            1    LIG   0.0000
  44 H            2.4634     3.0245     0.3091 H            1    LIG   0.0000
  45 H            3.4697     1.7778     0.6247 H            1    LIG   0.0000
  46 H            4.4785     3.7978     1.3247 H            1    LIG   0.0000
  47 H            3.1885     4.1295     2.2694 H            1    LIG   0.0000
  48 H            4.9643     1.8893     2.6470 H            1    LIG   0.0000
  49 H            6.5164     4.0917     2.3922 H            1    LIG   0.0000
  50 H            7.6262     7.0922     4.2402 H            1    LIG   0.0000
  51 H            7.4226     6.5059     2.7298 H            1    LIG   0.0000
  52 H            6.1220     6.8181     3.6667 H            1    LIG   0.0000
  53 H            8.9119     4.5953     3.2706 H            1    LIG   0.0000
  54 H           10.3519     5.1687     5.0783 H            1    LIG   0.0000
  55 H            9.3721     6.4257     4.7225 H            1    LIG   0.0000
  56 H            9.0514     5.4809     6.0152 H            1    LIG   0.0000
  57 H            9.5549     2.8415     4.7474 H            1    LIG   0.0000
  58 H            8.2544     3.1536     5.6843 H            1    LIG   0.0000
  59 H            8.0507     2.5673     4.1739 H            1    LIG   0.0000
  60 H            2.7027     2.7026     4.2407 H            1    LIG   0.0000
  61 H            3.6748     1.4368     4.5862 H            1    LIG   0.0000
  62 H            2.9843     0.3432     2.6067 H            1    LIG   0.0000
  63 H            1.6752     0.6992     3.5157 H            1    LIG   0.0000
  64 H           -0.7980     2.7769     1.7653 H            1    LIG   0.0000
  65 H           -3.7359     0.3454     3.4138 H            1    LIG   0.0000
  66 H           -2.0700    -3.4297     3.0217 H            1    LIG   0.0000
  67 H           -3.3362    -5.1003     1.8592 H            1    LIG   0.0000
  68 H           -5.0970    -2.1397    -0.4599 H            1    LIG   0.0000
  69 H           -3.8273    -0.4758     0.7105 H            1    LIG   0.0000
@<TRIPOS>BOND
   1        1        2 1
   2        2        3 1
   3        3        4 1
   4        4        5 2
   5        4        6 1
   6        6        7 2
   7        7        8 1
   8        8        9 1
   9        9       10 1
  10       10       11 1
  11       11       12 1
  12       12       13 1
  13       13       14 2
  14       13       15 am
  15       15       16 1
  16       16       17 1
  17       16       18 1
  18       18       19 1
  19       18       20 1
  20       12       21 1
  21       21       22 1
  22       22        9 1
  23        7       23 1
  24       23       24 am
  25       24       25 2
  26       24       26 am
  27       26       27 1
  28       27        6 1
  29       27       28 1
  30       28       29 ar
  31       29       30 ar
  32       30       31 ar
  33       31       32 1
  34       31       33 ar
  35       33       34 ar
  36       34       28 ar
  37       16       35 1
  38       27       36 1
  39        1       37 1
  40        1       38 1
  41        1       39 1
  42        2       40 1
  43        2       41 1
  44        8       42 1
  45        8       43 1
  46       10       44 1
  47       10       45 1
  48       11       46 1
  49       11       47 1
  50       12       48 1
  51       15       49 1
  52       17       50 1
  53       17       51 1
  54       17       52 1
  55       18       53 1
  56       19       54 1
  57       19       55 1
  58       19       56 1
  59       20       57 1
  60       20       58 1
  61       20       59 1
  62       21       60 1
  63       21       61 1
  64       22       62 1
  65       22       63 1
  66       23       64 1
  67       26       65 1
  68       29       66 1
  69       30       67 1
  70       33       68 1
  71       34       69 1

@<TRIPOS>MOLECULE

  69   71
SMALL
USER_CHARGES
@<TRIPOS>ATOM
   1 C1           0.8876    -3.5900    -1.2662 C.3          1    LIG   0.0000
   2 C2           0.9921    -3.1673     0.1901 C.3          1    LIG   0.0000
   3 O3           0.1271    -2.0664     0.4267 O.3          1    LIG   0.0000
   4 C4           0.1244    -1.6045     1.6526 C.2          1    LIG   0.0000
   5 O5           0.8236    -2.1109     2.4861 O.2          1    LIG   0.0000
   6 C6          -0.7233    -0.4813     2.0023 C.2          1    LIG   0.0000
   7 C7          -0.3274     0.7489     1.7000 C.2          1    LIG   0.0000
   8 C8           1.0000     1.0000     1.0000 C.3          1    LIG   0.0000
   9 N9           1.8499     1.8499     1.8499 N.3          1    LIG   0.0000
  10 C10          3.2564     1.7141     1.4432 C.3          1    LIG   0.0000
  11 C11          4.1431     2.6167     2.2861 C.3          1    LIG   0.0000
  12 C12          3.9882     2.2781     3.7601 C.3          1    LIG   0.0000
  13 C13          4.8574     3.1908     4.6143 C.2          1    LIG   0.0000
  14 O14          5.5363     4.0323     4.0938 O.2          1    LIG   0.0000
  15 N15          4.8643     3.0514     5.9772 N.am         1    LIG   0.0000
  16 C16          5.7035     3.9326     6.8019 C.3          1    LIG   0.0000
  17 C17          6.6971     3.0944     7.5896 C.3          1    LIG   0.0000
  18 C18          4.8243     4.7139     7.7647 C.3          1    LIG   0.0000
  19 C19          5.6920     5.6251     8.6175 C.3          1    LIG   0.0000
  20 C20          3.8306     5.5522     6.9771 C.3          1    LIG   0.0000
  21 C21          2.5249     2.4413     4.1386 C.3          1    LIG   0.0000
  22 C22          1.6581     1.5394     3.2744 C.3          1    LIG   0.0000
  23 N23         -1.1219     1.8609     2.0018 N.am         1    LIG   0.0000
  24 C24         -2.3648     1.7088     2.6307 C.2          1    LIG   0.0000
  25 O25         -3.0547     2.6792     2.8932 O.2          1    LIG   0.0000
  26 N26         -2.8417     0.4354     2.9753 N.am         1    LIG   0.0000
  27 C27         -2.0442    -0.7686     2.7003 C.3          1    LIG   0.0000
  28 C28         -2.8501    -1.8222     1.9581 C.ar         1    LIG   0.0000
  29 C29         -3.5637    -1.4654     0.8193 C.ar         1    LIG   0.0000
  30 C30         -4.3039    -2.4230     0.1336 C.ar         1    LIG   0.0000
  31 C31         -4.3194    -3.7325     0.6028 C.ar         1    LIG   0.0000
  32 Cl32        -5.2645    -4.9633    -0.2687 Cl           1    LIG   0.0000
  33 C33         -3.6095    -4.0987     1.7415 C.ar         1    LIG   0.0000
  34 C34         -2.8714    -3.1335     2.4202 C.ar         1    LIG   0.0000
  35 H            6.1990     4.5695     6.2113 H            1    LIG   0.0000
  36 H           -1.8136    -1.1638     3.5895 H            1    LIG   0.0000
  37 H            1.4968    -4.3654    -1.4328 H            1    LIG   0.0000
  38 H           -0.0546    -3.8568    -1.4690 H            1    LIG   0.0000
  39 H            1.1518    -2.8260    -1.8548 H            1    LIG   0.0000
  40 H            0.7279    -3.9314     0.7787 H            1    LIG   0.0000
  41 H            1.9343    -2.9006     0.3930 H            1    LIG   0.0000
  42 H            1.4601     0.1276     0.8350 H            1    LIG   0.0000
  43 H            0.8350     1.4601     0.1276 H            1    LIG   0.0000
  44 H            3.3469     1.9695     0.4806 H            1    LIG   0.0000
  45 H            3.5438     0.7640     1.5644 H            1    LIG   0.0000
  46 H            5.0973     2.4876     2.0162 H            1    LIG   0.0000
  47 H            3.8805     3.5700     2.1370 H            1    LIG   0.0000
  48 H            4.2625     1.3282     3.9098 H            1    LIG   0.0000
  49 H            4.2985     2.3502     6.4109 H            1    LIG   0.0000
  50 H            7.2680     3.6939     8.1506 H            1    LIG   0.0000
  51 H            6.2016     2.4575     8.1801 H            1    LIG   0.0000
  52 H            7.2755     2.5804     6.9561 H            1    LIG   0.0000
  53 H            4.3288     4.0770     8.3553 H            1    LIG   0.0000
  54 H            5.1136     6.1391     9.2510 H            1    LIG   0.0000
  55 H            6.3457     5.0737     9.1357 H            1    LIG   0.0000
  56 H            6.1875     6.2620     8.0269 H            1    LIG   0.0000
  57 H            3.2522     6.0662     7.6105 H            1    LIG   0.0000
  58 H            4.3261     6.1891     6.3865 H            1    LIG   0.0000
  59 H            3.2598     4.9527     6.4161 H            1    LIG   0.0000
  60 H            2.2518     3.3934     4.0009 H            1    LIG   0.0000
  61 H            2.4025     2.1952     5.1001 H            1    LIG   0.0000
  62 H            1.9089     0.5856     3.4398 H            1    LIG   0.0000
  63 H            0.6974     1.6780     3.5148 H            1    LIG   0.0000
  64 H           -0.7980     2.7769     1.7653 H            1    LIG   0.0000
  65 H           -3.7359     0.3454     3.4138 H            1    LIG   0.0000
  66 H           -3.5448    -0.5203     0.4931 H            1    LIG   0.0000
  67 H           -4.8186    -2.1731    -0.6865 H            1    LIG   0.0000
  68 H           -3.6293    -5.0435     2.0684 H            1    LIG   0.0000
  69 H           -2.3563    -3.3831     3.2403 H            1    LIG   0.0000
@<TRIPOS>BOND
   1        1        2 1
   2        2        3 1
   3        3        4 1
   4        4        5 2
   5        4        6 1
   6        6        7 2
   7        7        8 1
   8        8        9 1
   9        9       10 1
  10       10       11 1
  11       11       12 1
  12       12       13 1
  13       13       14 2
  14       13       15 am
  15       15       16 1
  16       16       17 1
  17       16       18 1
  18       18       19 1
  19       18       20 1
  20       12       21 1
  21       21       22 1
  22       22        9 1
  23        7       23 1
  24       23       24 am
  25       24       25 2
  26       24       26 am
  27       26       27 1
  28       27        6 1
  29       27       28 1
  30       28       29 ar
  31       29       30 ar
  32       30       31 ar
  33       31       32 1
  34       31       33 ar
  35       33       34 ar
  36       34       28 ar
  37       16       35 1
  38       27       36 1
  39        1       37 1
  40        1       38 1
  41        1       39 1
  42        2       40 1
  43        2       41 1
  44        8       42 1
  45        8       43 1
  46       10       44 1
  47       10       45 1
  48       11       46 1
  49       11       47 1
  50       12       48 1
  51       15       49 1
  52       17       50 1
  53       17       51 1
  54       17       52 1
  55       18       53 1
  56       19       54 1
  57       19       55 1
  58       19       56 1
  59       20       57 1
  60       20       58 1
  61       20       59 1
  62       21       60 1
  63       21       61 1
  64       22       62 1
  65       22       63 1
  66       23       64 1
  67       26       65 1
  68       29       66 1
  69       30       67 1
  70       33       68 1
  71       34       69 1

@<TRIPOS>MOLECULE

  69   71
SMALL
USER_CHARGES
@<TRIPOS>ATOM
   1 C1          -0.8519     5.0982    -1.4478 C.3          1    LIG   0.0000
   2 C2          -1.1937     3.6190    -1.5202 C.3          1    LIG   0.0000
   3 O3          -1.1809     3.0656    -0.2125 O.3          1    LIG   0.0000
   4 C4          -1.4616     1.7882    -0.1379 C.2          1    LIG   0.0000
   5 O5          -1.7069     1.1685    -1.1358 O.2          1    LIG   0.0000
   6 C6          -1.4761     1.1232     1.1506 C.2          1    LIG   0.0000
   7 C7          -0.3274     0.7489     1.7000 C.2          1    LIG   0.0000
   8 C8           1.0000     1.0000     1.0000 C.3          1    LIG   0.0000
   9 N9           1.8508     1.8508     1.8508 N.3          1    LIG   0.0000
  10 C10          2.9012     2.4947     1.0473 C.3          1    LIG   0.0000
  11 C11          3.8107     3.3431     1.9222 C.3          1    LIG   0.0000
  12 C12          2.9833     4.3956     2.6442 C.3          1    LIG   0.0000
  13 C13          3.8775     5.2387     3.5434 C.2          1    LIG   0.0000
  14 O14          5.0554     5.0157     3.5972 O.2          1    LIG   0.0000
  15 N15          3.3373     6.2516     4.2911 N.am         1    LIG   0.0000
  16 C16          4.2005     7.0654     5.1591 C.3          1    LIG   0.0000
  17 C17          3.7361     6.9356     6.6006 C.3          1    LIG   0.0000
  18 C18          4.1215     8.5216     4.7305 C.3          1    LIG   0.0000
  19 C19          5.0141     9.3630     5.6281 C.3          1    LIG   0.0000
  20 C20          4.5859     8.6513     3.2890 C.3          1    LIG   0.0000
  21 C21          1.9216     3.6941     3.4766 C.3          1    LIG   0.0000
  22 C22          1.0409     2.8378     2.5803 C.3          1    LIG   0.0000
  23 N23         -0.2925     0.1209     2.9503 N.am         1    LIG   0.0000
  24 C24         -1.4722    -0.1292     3.6640 C.2          1    LIG   0.0000
  25 O25         -1.4391    -0.6771     4.7527 O.2          1    LIG   0.0000
  26 N26         -2.7187     0.2429     3.1394 N.am         1    LIG   0.0000
  27 C27         -2.8205     0.8892     1.8229 C.3          1    LIG   0.0000
  28 C28         -3.6442     2.1653     1.8827 C.ar         1    LIG   0.0000
  29 C29         -4.5286     2.4614     0.8513 C.ar         1    LIG   0.0000
  30 C30         -5.2865     3.6269     0.8978 C.ar         1    LIG   0.0000
  31 C31         -5.1455     4.4850     1.9836 C.ar         1    LIG   0.0000
  32 Cl32        -6.1114     5.9784     2.0499 Cl           1    LIG   0.0000
  33 C33         -4.2629     4.1978     3.0195 C.ar         1    LIG   0.0000
  34 C34         -3.5094     3.0289     2.9642 C.ar         1    LIG   0.0000
  35 H            5.1452     6.7463     5.0833 H            1    LIG   0.0000
  36 H           -3.3237     0.2556     1.2353 H            1    LIG   0.0000
  37 H           -0.8609     5.4879    -2.3687 H            1    LIG   0.0000
  38 H           -1.5271     5.5690    -0.8800 H            1    LIG   0.0000
  39 H            0.0574     5.2110    -1.0470 H            1    LIG   0.0000
  40 H           -2.1030     3.5062    -1.9209 H            1    LIG   0.0000
  41 H           -0.5185     3.1482    -2.0880 H            1    LIG   0.0000
  42 H            1.4601     0.1276     0.8350 H            1    LIG   0.0000
  43 H            0.8350     1.4601     0.1276 H            1    LIG   0.0000
  44 H            2.4737     3.0782     0.3568 H            1    LIG   0.0000
  45 H            3.4468     1.7887     0.5957 H            1    LIG   0.0000
  46 H            4.2665     2.7591     2.5939 H            1    LIG   0.0000
  47 H            4.4973     3.7931     1.3512 H            1    LIG   0.0000
  48 H            2.5390     4.9867     1.9710 H            1    LIG   0.0000
  49 H            2.3557     6.4373     4.2464 H            1    LIG   0.0000
  50 H            4.3233     7.4892     7.1911 H            1    LIG   0.0000
  51 H            2.7914     7.2547     6.6765 H            1    LIG   0.0000
  52 H            3.7881     5.9776     6.8826 H            1    LIG   0.0000
  53 H            3.1768     8.8406     4.8064 H            1    LIG   0.0000
  54 H            4.9621    10.3211     5.3461 H            1    LIG   0.0000
  55 H            4.7086     9.2777     6.5764 H            1    LIG   0.0000
  56 H            5.9588     9.0440     5.5522 H            1    LIG   0.0000
  57 H            4.5339     9.6093     3.0070 H            1    LIG   0.0000
  58 H            5.5306     8.3323     3.2131 H            1    LIG   0.0000
  59 H            3.9987     8.0977     2.6985 H            1    LIG   0.0000
  60 H            1.3577     4.3783     3.9391 H            1    LIG   0.0000
  61 H            2.3658     3.1124     4.1580 H            1    LIG   0.0000
  62 H            0.3667     2.3589     3.1426 H            1    LIG   0.0000
  63 H            0.5695     3.4263     1.9235 H            1    LIG   0.0000
  64 H            0.5868    -0.1531     3.3399 H            1    LIG   0.0000
  65 H           -3.5491     0.0661     3.6678 H            1    LIG   0.0000
  66 H           -4.6197     1.8363     0.0761 H            1    LIG   0.0000
  67 H           -5.9249     3.8452     0.1597 H            1    LIG   0.0000
  68 H           -4.1708     4.8234     3.7942 H            1    LIG   0.0000
  69 H           -2.8711     2.8102     3.7023 H            1    LIG   0.0000
@<TRIPOS>BOND
   1        1        2 1
   2        2        3 1
   3        3        4 1
   4        4        5 2
   5        4        6 1
   6        6        7 2
   7        7        8 1
   8        8        9 1
   9        9       10 1
  10       10       11 1
  11       11       12 1
  12       12       13 1
  13       13       14 2
  14       13       15 am
  15       15       16 1
  16       16       17 1
  17       16       18 1
  18       18       19 1
  19       18       20 1
  20       12       21 1
  21       21       22 1
  22       22        9 1
  23        7       23 1
  24       23       24 am
  25       24       25 2
  26       24       26 am
  27       26       27 1
  28       27        6 1
  29       27       28 1
  30       28       29 ar
  31       29       30 ar
  32       30       31 ar
  33       31       32 1
  34       31       33 ar
  35       33       34 ar
  36       34       28 ar
  37       16       35 1
  38       27       36 1
  39        1       37 1
  40        1       38 1
  41        1       39 1
  42        2       40 1
  43        2       41 1
  44        8       42 1
  45        8       43 1
  46       10       44 1
  47       10       45 1
  48       11       46 1
  49       11       47 1
  50       12       48 1
  51       15       49 1
  52       17       50 1
  53       17       51 1
  54       17       52 1
  55       18       53 1
  56       19       54 1
  57       19       55 1
  58       19       56 1
  59       20       57 1
  60       20       58 1
  61       20       59 1
  62       21       60 1
  63       21       61 1
  64       22       62 1
  65       22       63 1
  66       23       64 1
  67       26       65 1
  68       29       66 1
  69       30       67 1
  70       33       68 1
  71       34       69 1

@<TRIPOS>MOLECULE

  69   71
SMALL
USER_CHARGES
@<TRIPOS>ATOM
   1 C1          -1.1823     0.8885    -3.6245 C.3          1    LIG   0.0000
   2 C2          -1.3339     1.8333    -2.4435 C.3          1    LIG   0.0000
   3 O3          -1.3363     1.0855    -1.2363 O.3          1    LIG   0.0000
   4 C4          -1.4616     1.7882    -0.1379 C.2          1    LIG   0.0000
   5 O5          -1.5645     2.9823    -0.1979 O.2          1    LIG   0.0000
   6 C6          -1.4761     1.1232     1.1506 C.2          1    LIG   0.0000
   7 C7          -0.3274     0.7489     1.7000 C.2          1    LIG   0.0000
   8 C8           1.0000     1.0000     1.0000 C.3          1    LIG   0.0000
   9 N9           1.8508     1.8508     1.8508 N.3          1    LIG   0.0000
  10 C10          2.9012     2.4947     1.0473 C.3          1    LIG   0.0000
  11 C11          3.8107     3.3431     1.9222 C.3          1    LIG   0.0000
  12 C12          2.9833     4.3956     2.6442 C.3          1    LIG   0.0000
  13 C13          3.8775     5.2387     3.5434 C.2          1    LIG   0.0000
  14 O14          3.9568     6.4234     3.3700 O.2          1    LIG   0.0000
  15 N15          4.5915     4.6445     4.5505 N.am         1    LIG   0.0000
  16 C16          5.4547     5.4583     5.4185 C.3          1    LIG   0.0000
  17 C17          6.8907     4.9734     5.3032 C.3          1    LIG   0.0000
  18 C18          4.9903     5.3286     6.8600 C.3          1    LIG   0.0000
  19 C19          5.8829     6.1700     7.7576 C.3          1    LIG   0.0000
  20 C20          3.5544     5.8135     6.9753 C.3          1    LIG   0.0000
  21 C21          1.9216     3.6941     3.4766 C.3          1    LIG   0.0000
  22 C22          1.0409     2.8378     2.5803 C.3          1    LIG   0.0000
  23 N23         -0.2925     0.1209     2.9503 N.am         1    LIG   0.0000
  24 C24         -1.4722    -0.1292     3.6640 C.2          1    LIG   0.0000
  25 O25         -1.4391    -0.6771     4.7527 O.2          1    LIG   0.0000
  26 N26         -2.7187     0.2429     3.1394 N.am         1    LIG   0.0000
  27 C27         -2.8205     0.8892     1.8229 C.3          1    LIG   0.0000
  28 C28         -3.6442     2.1653     1.8827 C.ar         1    LIG   0.0000
  29 C29         -3.3600     3.1219     2.8511 C.ar         1    LIG   0.0000
  30 C30         -4.1085     4.2927     2.9133 C.ar         1    LIG   0.0000
  31 C31         -5.1384     4.4889     1.9990 C.ar         1    LIG   0.0000
  32 Cl32        -6.1009     5.9842     2.0725 Cl           1    LIG   0.0000
  33 C33         -5.4307     3.5374     1.0274 C.ar         1    LIG   0.0000
  34 C34         -4.6758     2.3695     0.9729 C.ar         1    LIG   0.0000
  35 H            5.4028     6.4163     5.1365 H            1    LIG   0.0000
  36 H           -3.3237     0.2556     1.2353 H            1    LIG   0.0000
  37 H           -1.1806     1.4151    -4.4746 H            1    LIG   0.0000
  38 H           -0.3213     0.3867    -3.5415 H            1    LIG   0.0000
  39 H           -1.9453     0.2422    -3.6343 H            1    LIG   0.0000
  40 H           -0.5709     2.4797    -2.4336 H            1    LIG   0.0000
  41 H           -2.1949     2.3352    -2.5264 H            1    LIG   0.0000
  42 H            1.4601     0.1276     0.8350 H            1    LIG   0.0000
  43 H            0.8350     1.4601     0.1276 H            1    LIG   0.0000
  44 H            2.4737     3.0782     0.3568 H            1    LIG   0.0000
  45 H            3.4468     1.7887     0.5957 H            1    LIG   0.0000
  46 H            4.2665     2.7591     2.5939 H            1    LIG   0.0000
  47 H            4.4973     3.7931     1.3512 H            1    LIG   0.0000
  48 H            2.5390     4.9867     1.9710 H            1    LIG   0.0000
  49 H            4.5254     3.6572     4.6951 H            1    LIG   0.0000
  50 H            7.4779     5.5270     5.8937 H            1    LIG   0.0000
  51 H            6.9426     4.0154     5.5852 H            1    LIG   0.0000
  52 H            7.1962     5.0587     4.3548 H            1    LIG   0.0000
  53 H            5.0423     4.3706     7.1420 H            1    LIG   0.0000
  54 H            5.5774     6.0847     8.7059 H            1    LIG   0.0000
  55 H            6.8276     5.8510     7.6817 H            1    LIG   0.0000
  56 H            5.8310     7.1281     7.4756 H            1    LIG   0.0000
  57 H            3.2489     5.7281     7.9237 H            1    LIG   0.0000
  58 H            3.5024     6.7715     6.6934 H            1    LIG   0.0000
  59 H            2.9672     5.2599     6.3849 H            1    LIG   0.0000
  60 H            1.3577     4.3783     3.9391 H            1    LIG   0.0000
  61 H            2.3658     3.1124     4.1580 H            1    LIG   0.0000
  62 H            0.3667     2.3589     3.1426 H            1    LIG   0.0000
  63 H            0.5695     3.4263     1.9235 H            1    LIG   0.0000
  64 H            0.5868    -0.1531     3.3399 H            1    LIG   0.0000
  65 H           -3.5491     0.0661     3.6678 H            1    LIG   0.0000
  66 H           -2.6173     2.9681     3.5029 H            1    LIG   0.0000
  67 H           -3.9086     4.9850     3.6067 H            1    LIG   0.0000
  68 H           -6.1741     3.6906     0.3763 H            1    LIG   0.0000
  69 H           -4.8751     1.6772     0.2794 H            1    LIG   0.0000
@<TRIPOS>BOND
   1        1        2 1
   2        2        3 1
   3        3        4 1
   4        4        5 2
   5        4        6 1
   6        6        7 2
   7        7        8 1
   8        8        9 1
   9        9       10 1
  10       10       11 1
  11       11       12 1
  12       12       13 1
  13       13       14 2
  14       13       15 am
  15       15       16 1
  16       16       17 1
  17       16       18 1
  18       18       19 1
  19       18       20 1
  20       12       21 1
  21       21       22 1
  22       22        9 1
  23        7       23 1
  24       23       24 am
  25       24       25 2
  26       24       26 am
  27       26       27 1
  28       27        6 1
  29       27       28 1
  30       28       29 ar
  31       29       30 ar
  32       30       31 ar
  33       31       32 1
  34       31       33 ar
  35       33       34 ar
  36       34       28 ar
  37       16       35 1
  38       27       36 1
  39        1       37 1
  40        1       38 1
  41        1       39 1
  42        2       40 1
  43        2       41 1
  44        8       42 1
  45        8       43 1
  46       10       44 1
  47       10       45 1
  48       11       46 1
  49       11       47 1
  50       12       48 1
  51       15       49 1
  52       17       50 1
  53       17       51 1
  54       17       52 1
  55       18       53 1
  56       19       54 1
  57       19       55 1
  58       19       56 1
  59       20       57 1
  60       20       58 1
  61       20       59 1
  62       21       60 1
  63       21       61 1
  64       22       62 1
  65       22       63 1
  66       23       64 1
  67       26       65 1
  68       29       66 1
  69       30       67 1
  70       33       68 1
  71       34       69 1

@<TRIPOS>MOLECULE

  69   71
SMALL
USER_CHARGES
@<TRIPOS>ATOM
   1 C1          -0.8519     5.0982    -1.4478 C.3          1    LIG   0.0000
   2 C2          -1.1937     3.6190    -1.5202 C.3          1    LIG   0.0000
   3 O3          -1.1809     3.0656    -0.2125 O.3          1    LIG   0.0000
   4 C4          -1.4616     1.7882    -0.1379 C.2          1    LIG   0.0000
   5 O5          -1.7069     1.1685    -1.1358 O.2          1    LIG   0.0000
   6 C6          -1.4761     1.1232     1.1506 C.2          1    LIG   0.0000
   7 C7          -0.3274     0.7489     1.7000 C.2          1    LIG   0.0000
   8 C8           1.0000     1.0000     1.0000 C.3          1    LIG   0.0000
   9 N9           1.8508     1.8508     1.8508 N.3          1    LIG   0.0000
  10 C10          2.9012     2.4947     1.0473 C.3          1    LIG   0.0000
  11 C11          3.8107     3.3431     1.9222 C.3          1    LIG   0.0000
  12 C12          2.9833     4.3956     2.6442 C.3          1    LIG   0.0000
  13 C13          3.8775     5.2387     3.5434 C.2          1    LIG   0.0000
  14 O14          3.6773     5.2733     4.7261 O.2          1    LIG   0.0000
  15 N15          4.9106     5.9575     3.0022 N.am         1    LIG   0.0000
  16 C16          5.7738     6.7713     3.8702 C.3          1    LIG   0.0000
  17 C17          5.6948     8.2275     3.4416 C.3          1    LIG   0.0000
  18 C18          7.2097     6.2864     3.7549 C.3          1    LIG   0.0000
  19 C19          8.1023     7.1279     4.6525 C.3          1    LIG   0.0000
  20 C20          7.2887     4.8302     4.1835 C.3          1    LIG   0.0000
  21 C21          1.9216     3.6941     3.4766 C.3          1    LIG   0.0000
  22 C22          1.0409     2.8378     2.5803 C.3          1    LIG   0.0000
  23 N23         -0.2925     0.1209     2.9503 N.am         1    LIG   0.0000
  24 C24         -1.4722    -0.1292     3.6640 C.2          1    LIG   0.0000
  25 O25         -1.4391    -0.6771     4.7527 O.2          1    LIG   0.0000
  26 N26         -2.7187     0.2429     3.1394 N.am         1    LIG   0.0000
  27 C27         -2.8205     0.8892     1.8229 C.3          1    LIG   0.0000
  28 C28         -3.6442     2.1653     1.8827 C.ar         1    LIG   0.0000
  29 C29         -4.5286     2.4614     0.8513 C.ar         1    LIG   0.0000
  30 C30         -5.2865     3.6269     0.8978 C.ar         1    LIG   0.0000
  31 C31         -5.1455     4.4850     1.9836 C.ar         1    LIG   0.0000
  32 Cl32        -6.1114     5.9784     2.0499 Cl           1    LIG   0.0000
  33 C33         -4.2629     4.1978     3.0195 C.ar         1    LIG   0.0000
  34 C34         -3.5094     3.0289     2.9642 C.ar         1    LIG   0.0000
  35 H            5.4683     6.6860     4.8186 H            1    LIG   0.0000
  36 H           -3.3237     0.2556     1.2353 H            1    LIG   0.0000
  37 H           -0.8609     5.4879    -2.3687 H            1    LIG   0.0000
  38 H           -1.5271     5.5690    -0.8800 H            1    LIG   0.0000
  39 H            0.0574     5.2110    -1.0470 H            1    LIG   0.0000
  40 H           -2.1030     3.5062    -1.9209 H            1    LIG   0.0000
  41 H           -0.5185     3.1482    -2.0880 H            1    LIG   0.0000
  42 H            1.4601     0.1276     0.8350 H            1    LIG   0.0000
  43 H            0.8350     1.4601     0.1276 H            1    LIG   0.0000
  44 H            2.4737     3.0782     0.3568 H            1    LIG   0.0000
  45 H            3.4468     1.7887     0.5957 H            1    LIG   0.0000
  46 H            4.2665     2.7591     2.5939 H            1    LIG   0.0000
  47 H            4.4973     3.7931     1.3512 H            1    LIG   0.0000
  48 H            2.5390     4.9867     1.9710 H            1    LIG   0.0000
  49 H            5.0774     5.9286     2.0166 H            1    LIG   0.0000
  50 H            6.2820     8.7811     4.0321 H            1    LIG   0.0000
  51 H            6.0003     8.3129     2.4932 H            1    LIG   0.0000
  52 H            4.7501     8.5465     3.5175 H            1    LIG   0.0000
  53 H            7.5152     6.3718     2.8066 H            1    LIG   0.0000
  54 H            9.0470     6.8088     4.5766 H            1    LIG   0.0000
  55 H            8.0504     8.0859     4.3705 H            1    LIG   0.0000
  56 H            7.7968     7.0425     5.6008 H            1    LIG   0.0000
  57 H            8.2334     4.5112     4.1077 H            1    LIG   0.0000
  58 H            6.9832     4.7449     5.1319 H            1    LIG   0.0000
  59 H            6.7015     4.2766     3.5930 H            1    LIG   0.0000
  60 H            1.3577     4.3783     3.9391 H            1    LIG   0.0000
  61 H            2.3658     3.1124     4.1580 H            1    LIG   0.0000
  62 H            0.3667     2.3589     3.1426 H            1    LIG   0.0000
  63 H            0.5695     3.4263     1.9235 H            1    LIG   0.0000
  64 H            0.5868    -0.1531     3.3399 H            1    LIG   0.0000
  65 H           -3.5491     0.0661     3.6678 H            1    LIG   0.0000
  66 H           -4.6197     1.8363     0.0761 H            1    LIG   0.0000
  67 H           -5.9249     3.8452     0.1597 H            1    LIG   0.0000
  68 H           -4.1708     4.8234     3.7942 H            1    LIG   0.0000
  69 H           -2.8711     2.8102     3.7023 H            1    LIG   0.0000
@<TRIPOS>BOND
   1        1        2 1
   2        2        3 1
   3        3        4 1
   4        4        5 2
   5        4        6 1
   6        6        7 2
   7        7        8 1
   8        8        9 1
   9        9       10 1
  10       10       11 1
  11       11       12 1
  12       12       13 1
  13       13       14 2
  14       13       15 am
  15       15       16 1
  16       16       17 1
  17       16       18 1
  18       18       19 1
  19       18       20 1
  20       12       21 1
  21       21       22 1
  22       22        9 1
  23        7       23 1
  24       23       24 am
  25       24       25 2
  26       24       26 am
  27       26       27 1
  28       27        6 1
  29       27       28 1
  30       28       29 ar
  31       29       30 ar
  32       30       31 ar
  33       31       32 1
  34       31       33 ar
  35       33       34 ar
  36       34       28 ar
  37       16       35 1
  38       27       36 1
  39        1       37 1
  40        1       38 1
  41        1       39 1
  42        2       40 1
  43        2       41 1
  44        8       42 1
  45        8       43 1
  46       10       44 1
  47       10       45 1
  48       11       46 1
  49       11       47 1
  50       12       48 1
  51       15       49 1
  52       17       50 1
  53       17       51 1
  54       17       52 1
  55       18       53 1
  56       19       54 1
  57       19       55 1
  58       19       56 1
  59       20       57 1
  60       20       58 1
  61       20       59 1
  62       21       60 1
  63       21       61 1
  64       22       62 1
  65       22       63 1
  66       23       64 1
  67       26       65 1
  68       29       66 1
  69       30       67 1
  70       33       68 1
  71       34       69 1

@<TRIPOS>MOLECULE

  69   71
SMALL
USER_CHARGES
@<TRIPOS>ATOM
   1 C1           0.8876    -3.5900    -1.2662 C.3          1    LIG   0.0000
   2 C2           0.9921    -3.1673     0.1901 C.3          1    LIG   0.0000
   3 O3           0.1271    -2.0664     0.4267 O.3          1    LIG   0.0000
   4 C4           0.1244    -1.6045     1.6526 C.2          1    LIG   0.0000
   5 O5           0.8236    -2.1109     2.4861 O.2          1    LIG   0.0000
   6 C6          -0.7233    -0.4813     2.0023 C.2          1    LIG   0.0000
   7 C7          -0.3274     0.7489     1.7000 C.2          1    LIG   0.0000
   8 C8           1.0000     1.0000     1.0000 C.3          1    LIG   0.0000
   9 N9           1.8488     1.8488     1.8488 N.3          1    LIG   0.0000
  10 C10          2.3031     1.1048     3.0340 C.3          1    LIG   0.0000
  11 C11          3.2373     1.9340     3.9030 C.3          1    LIG   0.0000
  12 C12          3.4284     3.3374     3.3461 C.3          1    LIG   0.0000
  13 C13          4.4127     4.1372     4.1846 C.2          1    LIG   0.0000
  14 O14          4.9244     3.6377     5.1483 O.2          1    LIG   0.0000
  15 N15          4.7154     5.4281     3.8399 N.am         1    LIG   0.0000
  16 C16          5.6671     6.2014     4.6506 C.3          1    LIG   0.0000
  17 C17          4.9757     7.4379     5.2014 C.3          1    LIG   0.0000
  18 C18          6.8445     6.6219     3.7862 C.3          1    LIG   0.0000
  19 C19          7.8285     7.4214     4.6244 C.3          1    LIG   0.0000
  20 C20          7.5358     5.3853     3.2354 C.3          1    LIG   0.0000
  21 C21          3.9231     3.2143     1.9125 C.3          1    LIG   0.0000
  22 C22          2.9819     2.3689     1.0681 C.3          1    LIG   0.0000
  23 N23         -1.1219     1.8609     2.0018 N.am         1    LIG   0.0000
  24 C24         -2.3648     1.7088     2.6307 C.2          1    LIG   0.0000
  25 O25         -3.0547     2.6792     2.8932 O.2          1    LIG   0.0000
  26 N26         -2.8417     0.4354     2.9753 N.am         1    LIG   0.0000
  27 C27         -2.0442    -0.7686     2.7003 C.3          1    LIG   0.0000
  28 C28         -2.8501    -1.8222     1.9581 C.ar         1    LIG   0.0000
  29 C29         -2.7031    -3.1632     2.2950 C.ar         1    LIG   0.0000
  30 C30         -3.4367    -4.1343     1.6212 C.ar         1    LIG   0.0000
  31 C31         -4.3118    -3.7450     0.6123 C.ar         1    LIG   0.0000
  32 Cl32        -5.2534    -4.9816    -0.2548 Cl           1    LIG   0.0000
  33 C33         -4.4648    -2.4062     0.2676 C.ar         1    LIG   0.0000
  34 C34         -3.7269    -1.4420     0.9480 C.ar         1    LIG   0.0000
  35 H            5.9947     5.6372     5.4085 H            1    LIG   0.0000
  36 H           -1.8136    -1.1638     3.5895 H            1    LIG   0.0000
  37 H            1.4968    -4.3654    -1.4328 H            1    LIG   0.0000
  38 H           -0.0546    -3.8568    -1.4690 H            1    LIG   0.0000
  39 H            1.1518    -2.8260    -1.8548 H            1    LIG   0.0000
  40 H            0.7279    -3.9314     0.7787 H            1    LIG   0.0000
  41 H            1.9343    -2.9006     0.3930 H            1    LIG   0.0000
  42 H            1.4601     0.1276     0.8350 H            1    LIG   0.0000
  43 H            0.8350     1.4601     0.1276 H            1    LIG   0.0000
  44 H            2.7863     0.2825     2.7336 H            1    LIG   0.0000
  45 H            1.5048     0.8430     3.5765 H            1    LIG   0.0000
  46 H            2.8504     2.0004     4.8227 H            1    LIG   0.0000
  47 H            4.1269     1.4793     3.9476 H            1    LIG   0.0000
  48 H            2.5463     3.8084     3.3451 H            1    LIG   0.0000
  49 H            4.2890     5.8443     3.0368 H            1    LIG   0.0000
  50 H            5.6231     7.9640     5.7529 H            1    LIG   0.0000
  51 H            4.6481     8.0021     4.4435 H            1    LIG   0.0000
  52 H            4.2011     7.1613     5.7701 H            1    LIG   0.0000
  53 H            6.5169     7.1860     3.0282 H            1    LIG   0.0000
  54 H            8.6031     7.6981     4.0557 H            1    LIG   0.0000
  55 H            7.3737     8.2350     4.9868 H            1    LIG   0.0000
  56 H            8.1561     6.8573     5.3824 H            1    LIG   0.0000
  57 H            8.3104     5.6619     2.6667 H            1    LIG   0.0000
  58 H            7.8634     4.8212     3.9933 H            1    LIG   0.0000
  59 H            6.8884     4.8592     2.6839 H            1    LIG   0.0000
  60 H            4.8276     2.7878     1.9165 H            1    LIG   0.0000
  61 H            3.9872     4.1281     1.5114 H            1    LIG   0.0000
  62 H            2.6270     2.9311     0.3212 H            1    LIG   0.0000
  63 H            3.4937     1.5973     0.6905 H            1    LIG   0.0000
  64 H           -0.7980     2.7769     1.7653 H            1    LIG   0.0000
  65 H           -3.7359     0.3454     3.4138 H            1    LIG   0.0000
  66 H           -2.0700    -3.4297     3.0217 H            1    LIG   0.0000
  67 H           -3.3362    -5.1003     1.8592 H            1    LIG   0.0000
  68 H           -5.0970    -2.1397    -0.4599 H            1    LIG   0.0000
  69 H           -3.8273    -0.4758     0.7105 H            1    LIG   0.0000
@<TRIPOS>BOND
   1        1        2 1
   2        2        3 1
   3        3        4 1
   4        4        5 2
   5        4        6 1
   6        6        7 2
   7        7        8 1
   8        8        9 1
   9        9       10 1
  10       10       11 1
  11       11       12 1
  12       12       13 1
  13       13       14 2
  14       13       15 am
  15       15       16 1
  16       16       17 1
  17       16       18 1
  18       18       19 1
  19       18       20 1
  20       12       21 1
  21       21       22 1
  22       22        9 1
  23        7       23 1
  24       23       24 am
  25       24       25 2
  26       24       26 am
  27       26       27 1
  28       27        6 1
  29       27       28 1
  30       28       29 ar
  31       29       30 ar
  32       30       31 ar
  33       31       32 1
  34       31       33 ar
  35       33       34 ar
  36       34       28 ar
  37       16       35 1
  38       27       36 1
  39        1       37 1
  40        1       38 1
  41        1       39 1
  42        2       40 1
  43        2       41 1
  44        8       42 1
  45        8       43 1
  46       10       44 1
  47       10       45 1
  48       11       46 1
  49       11       47 1
  50       12       48 1
  51       15       49 1
  52       17       50 1
  53       17       51 1
  54       17       52 1
  55       18       53 1
  56       19       54 1
  57       19       55 1
  58       19       56 1
  59       20       57 1
  60       20       58 1
  61       20       59 1
  62       21       60 1
  63       21       61 1
  64       22       62 1
  65       22       63 1
  66       23       64 1
  67       26       65 1
  68       29       66 1
  69       30       67 1
  70       33       68 1
  71       34       69 1

@<TRIPOS>MOLECULE

  69   71
SMALL
USER_CHARGES
@<TRIPOS>ATOM
   1 C1           2.3595    -2.6556    -0.2328 C.3          1    LIG   0.0000
   2 C2           0.9921    -3.1673     0.1901 C.3          1    LIG   0.0000
   3 O3           0.1271    -2.0664     0.4267 O.3          1    LIG   0.0000
   4 C4           0.1244    -1.6045     1.6526 C.2          1    LIG   0.0000
   5 O5           0.8236    -2.1109     2.4861 O.2          1    LIG   0.0000
   6 C6          -0.7233    -0.4813     2.0023 C.2          1    LIG   0.0000
   7 C7          -0.3274     0.7489     1.7000 C.2          1    LIG   0.0000
   8 C8           1.0000     1.0000     1.0000 C.3          1    LIG   0.0000
   9 N9           1.8488     1.8488     1.8488 N.3          1    LIG   0.0000
  10 C10          2.3031     1.1048     3.0340 C.3          1    LIG   0.0000
  11 C11          3.2373     1.9340     3.9030 C.3          1    LIG   0.0000
  12 C12          3.4284     3.3374     3.3461 C.3          1    LIG   0.0000
  13 C13          4.4127     4.1372     4.1846 C.2          1    LIG   0.0000
  14 O14          5.4171     4.5644     3.6859 O.2          1    LIG   0.0000
  15 N15          4.1529     4.3700     5.5094 N.am         1    LIG   0.0000
  16 C16          5.1046     5.1433     6.3201 C.3          1    LIG   0.0000
  17 C17          5.6026     4.2859     7.4721 C.3          1    LIG   0.0000
  18 C18          4.4132     6.3799     6.8709 C.3          1    LIG   0.0000
  19 C19          5.3973     7.1795     7.7092 C.3          1    LIG   0.0000
  20 C20          3.9153     7.2374     5.7188 C.3          1    LIG   0.0000
  21 C21          3.9231     3.2143     1.9125 C.3          1    LIG   0.0000
  22 C22          2.9819     2.3689     1.0681 C.3          1    LIG   0.0000
  23 N23         -1.1219     1.8609     2.0018 N.am         1    LIG   0.0000
  24 C24         -2.3648     1.7088     2.6307 C.2          1    LIG   0.0000
  25 O25         -3.0547     2.6792     2.8932 O.2          1    LIG   0.0000
  26 N26         -2.8417     0.4354     2.9753 N.am         1    LIG   0.0000
  27 C27         -2.0442    -0.7686     2.7003 C.3          1    LIG   0.0000
  28 C28         -2.8501    -1.8222     1.9581 C.ar         1    LIG   0.0000
  29 C29         -2.7031    -3.1632     2.2950 C.ar         1    LIG   0.0000
  30 C30         -3.4367    -4.1343     1.6212 C.ar         1    LIG   0.0000
  31 C31         -4.3118    -3.7450     0.6123 C.ar         1    LIG   0.0000
  32 Cl32        -5.2534    -4.9816    -0.2548 Cl           1    LIG   0.0000
  33 C33         -4.4648    -2.4062     0.2676 C.ar         1    LIG   0.0000
  34 C34         -3.7269    -1.4420     0.9480 C.ar         1    LIG   0.0000
  35 H            5.8792     5.4200     5.7514 H            1    LIG   0.0000
  36 H           -1.8136    -1.1638     3.5895 H            1    LIG   0.0000
  37 H            2.9686    -3.4310    -0.3994 H            1    LIG   0.0000
  38 H            2.2693    -2.1166    -1.0703 H            1    LIG   0.0000
  39 H            2.7401    -2.0826     0.4930 H            1    LIG   0.0000
  40 H            0.6115    -3.7403    -0.5357 H            1    LIG   0.0000
  41 H            1.0823    -3.7063     1.0276 H            1    LIG   0.0000
  42 H            1.4601     0.1276     0.8350 H            1    LIG   0.0000
  43 H            0.8350     1.4601     0.1276 H            1    LIG   0.0000
  44 H            2.7863     0.2825     2.7336 H            1    LIG   0.0000
  45 H            1.5048     0.8430     3.5765 H            1    LIG   0.0000
  46 H            2.8504     2.0004     4.8227 H            1    LIG   0.0000
  47 H            4.1269     1.4793     3.9476 H            1    LIG   0.0000
  48 H            2.5463     3.8084     3.3451 H            1    LIG   0.0000
  49 H            3.3159     4.0140     5.9249 H            1    LIG   0.0000
  50 H            6.2500     4.8119     8.0237 H            1    LIG   0.0000
  51 H            4.8280     4.0092     8.0409 H            1    LIG   0.0000
  52 H            6.0574     3.4723     7.1098 H            1    LIG   0.0000
  53 H            3.6386     6.1033     7.4396 H            1    LIG   0.0000
  54 H            4.9424     7.9930     8.0715 H            1    LIG   0.0000
  55 H            5.7249     6.6154     8.4671 H            1    LIG   0.0000
  56 H            6.1719     7.4561     7.1404 H            1    LIG   0.0000
  57 H            3.4604     8.0509     6.0812 H            1    LIG   0.0000
  58 H            4.6899     7.5140     5.1501 H            1    LIG   0.0000
  59 H            3.2679     6.7113     5.1673 H            1    LIG   0.0000
  60 H            4.8276     2.7878     1.9165 H            1    LIG   0.0000
  61 H            3.9872     4.1281     1.5114 H            1    LIG   0.0000
  62 H            2.6270     2.9311     0.3212 H            1    LIG   0.0000
  63 H            3.4937     1.5973     0.6905 H            1    LIG   0.0000
  64 H           -0.7980     2.7769     1.7653 H            1    LIG   0.0000
  65 H           -3.7359     0.3454     3.4138 H            1    LIG   0.0000
  66 H           -2.0700    -3.4297     3.0217 H            1    LIG   0.0000
  67 H           -3.3362    -5.1003     1.8592 H            1    LIG   0.0000
  68 H           -5.0970    -2.1397    -0.4599 H            1    LIG   0.0000
  69 H           -3.8273    -0.4758     0.7105 H            1    LIG   0.0000
@<TRIPOS>BOND
   1        1        2 1
   2        2        3 1
   3        3        4 1
   4        4        5 2
   5        4        6 1
   6        6        7 2
   7        7        8 1
   8        8        9 1
   9        9       10 1
  10       10       11 1
  11       11       12 1
  12       12       13 1
  13       13       14 2
  14       13       15 am
  15       15       16 1
  16       16       17 1
  17       16       18 1
  18       18       19 1
  19       18       20 1
  20       12       21 1
  21       21       22 1
  22       22        9 1
  23        7       23 1
  24       23       24 am
  25       24       25 2
  26       24       26 am
  27       26       27 1
  28       27        6 1
  29       27       28 1
  30       28       29 ar
  31       29       30 ar
  32       30       31 ar
  33       31       32 1
  34       31       33 ar
  35       33       34 ar
  36       34       28 ar
  37       16       35 1
  38       27       36 1
  39        1       37 1
  40        1       38 1
  41        1       39 1
  42        2       40 1
  43        2       41 1
  44        8       42 1
  45        8       43 1
  46       10       44 1
  47       10       45 1
  48       11       46 1
  49       11       47 1
  50       12       48 1
  51       15       49 1
  52       17       50 1
  53       17       51 1
  54       17       52 1
  55       18       53 1
  56       19       54 1
  57       19       55 1
  58       19       56 1
  59       20       57 1
  60       20       58 1
  61       20       59 1
  62       21       60 1
  63       21       61 1
  64       22       62 1
  65       22       63 1
  66       23       64 1
  67       26       65 1
  68       29       66 1
  69       30       67 1
  70       33       68 1
  71       34       69 1

@<TRIPOS>MOLECULE

  69   71
SMALL
USER_CHARGES
@<TRIPOS>ATOM
   1 C1           3.0654    -3.2568     2.9428 C.3          1    LIG   0.0000
   2 C2           1.9159    -3.0260     1.9754 C.3          1    LIG   0.0000
   3 O3           1.1514    -1.9096     2.4064 O.3          1    LIG   0.0000
   4 C4           0.1244    -1.6045     1.6526 C.2          1    LIG   0.0000
   5 O5          -0.1147    -2.2544     0.6726 O.2          1    LIG   0.0000
   6 C6          -0.7233    -0.4813     2.0023 C.2          1    LIG   0.0000
   7 C7          -0.3274     0.7489     1.7000 C.2          1    LIG   0.0000
   8 C8           1.0000     1.0000     1.0000 C.3          1    LIG   0.0000
   9 N9           1.8488     1.8488     1.8488 N.3          1    LIG   0.0000
  10 C10          2.3031     1.1048     3.0340 C.3          1    LIG   0.0000
  11 C11          3.2373     1.9340     3.9030 C.3          1    LIG   0.0000
  12 C12          3.4284     3.3374     3.3461 C.3          1    LIG   0.0000
  13 C13          4.4127     4.1372     4.1846 C.2          1    LIG   0.0000
  14 O14          4.0619     5.1562     4.7122 O.2          1    LIG   0.0000
  15 N15          5.7001     3.6944     4.3377 N.am         1    LIG   0.0000
  16 C16          6.6517     4.4677     5.1484 C.3          1    LIG   0.0000
  17 C17          7.8291     4.8882     4.2840 C.3          1    LIG   0.0000
  18 C18          7.1497     3.6102     6.3005 C.3          1    LIG   0.0000
  19 C19          8.1338     4.4098     7.1388 C.3          1    LIG   0.0000
  20 C20          5.9723     3.1897     7.1649 C.3          1    LIG   0.0000
  21 C21          3.9231     3.2143     1.9125 C.3          1    LIG   0.0000
  22 C22          2.9819     2.3689     1.0681 C.3          1    LIG   0.0000
  23 N23         -1.1219     1.8609     2.0018 N.am         1    LIG   0.0000
  24 C24         -2.3648     1.7088     2.6307 C.2          1    LIG   0.0000
  25 O25         -3.0547     2.6792     2.8932 O.2          1    LIG   0.0000
  26 N26         -2.8417     0.4354     2.9753 N.am         1    LIG   0.0000
  27 C27         -2.0442    -0.7686     2.7003 C.3          1    LIG   0.0000
  28 C28         -2.8501    -1.8222     1.9581 C.ar         1    LIG   0.0000
  29 C29         -3.5637    -1.4654     0.8193 C.ar         1    LIG   0.0000
  30 C30         -4.3039    -2.4230     0.1336 C.ar         1    LIG   0.0000
  31 C31         -4.3194    -3.7325     0.6028 C.ar         1    LIG   0.0000
  32 Cl32        -5.2645    -4.9633    -0.2687 Cl           1    LIG   0.0000
  33 C33         -3.6095    -4.0987     1.7415 C.ar         1    LIG   0.0000
  34 C34         -2.8714    -3.1335     2.4202 C.ar         1    LIG   0.0000
  35 H            6.1969     5.2812     5.5108 H            1    LIG   0.0000
  36 H           -1.8136    -1.1638     3.5895 H            1    LIG   0.0000
  37 H            3.6037    -4.0430     2.6392 H            1    LIG   0.0000
  38 H            3.6475    -2.4442     2.9686 H            1    LIG   0.0000
  39 H            2.7011    -3.4351     3.8568 H            1    LIG   0.0000
  40 H            2.2801    -2.8477     1.0613 H            1    LIG   0.0000
  41 H            1.3337    -3.8387     1.9496 H            1    LIG   0.0000
  42 H            1.4601     0.1276     0.8350 H            1    LIG   0.0000
  43 H            0.8350     1.4601     0.1276 H            1    LIG   0.0000
  44 H            2.7863     0.2825     2.7336 H            1    LIG   0.0000
  45 H            1.5048     0.8430     3.5765 H            1    LIG   0.0000
  46 H            2.8504     2.0004     4.8227 H            1    LIG   0.0000
  47 H            4.1269     1.4793     3.9476 H            1    LIG   0.0000
  48 H            2.5463     3.8084     3.3451 H            1    LIG   0.0000
  49 H            5.9924     2.8452     3.8980 H            1    LIG   0.0000
  50 H            8.4765     5.4142     4.8355 H            1    LIG   0.0000
  51 H            8.2840     4.0746     3.9216 H            1    LIG   0.0000
  52 H            7.5015     5.4523     3.5261 H            1    LIG   0.0000
  53 H            7.6046     2.7967     5.9381 H            1    LIG   0.0000
  54 H            8.4614     3.8457     7.8967 H            1    LIG   0.0000
  55 H            8.9084     4.6864     6.5700 H            1    LIG   0.0000
  56 H            7.6789     5.2233     7.5011 H            1    LIG   0.0000
  57 H            6.3000     2.6256     7.9229 H            1    LIG   0.0000
  58 H            5.5175     4.0033     7.5273 H            1    LIG   0.0000
  59 H            5.3249     2.6637     6.6134 H            1    LIG   0.0000
  60 H            4.8276     2.7878     1.9165 H            1    LIG   0.0000
  61 H            3.9872     4.1281     1.5114 H            1    LIG   0.0000
  62 H            2.6270     2.9311     0.3212 H            1    LIG   0.0000
  63 H            3.4937     1.5973     0.6905 H            1    LIG   0.0000
  64 H           -0.7980     2.7769     1.7653 H            1    LIG   0.0000
  65 H           -3.7359     0.3454     3.4138 H            1    LIG   0.0000
  66 H           -3.5448    -0.5203     0.4931 H            1    LIG   0.0000
  67 H           -4.8186    -2.1731    -0.6865 H            1    LIG   0.0000
  68 H           -3.6293    -5.0435     2.0684 H            1    LIG   0.0000
  69 H           -2.3563    -3.3831     3.2403 H            1    LIG   0.0000
@<TRIPOS>BOND
   1        1        2 1
   2        2        3 1
   3        3        4 1
   4        4        5 2
   5        4        6 1
   6        6        7 2
   7        7        8 1
   8        8        9 1
   9        9       10 1
  10       10       11 1
  11       11       12 1
  12       12       13 1
  13       13       14 2
  14       13       15 am
  15       15       16 1
  16       16       17 1
  17       16       18 1
  18       18       19 1
  19       18       20 1
  20       12       21 1
  21       21       22 1
  22       22        9 1
  23        7       23 1
  24       23       24 am
  25       24       25 2
  26       24       26 am
  27       26       27 1
  28       27        6 1
  29       27       28 1
  30       28       29 ar
  31       29       30 ar
  32       30       31 ar
  33       31       32 1
  34       31       33 ar
  35       33       34 ar
  36       34       28 ar
  37       16       35 1
  38       27       36 1
  39        1       37 1
  40        1       38 1
  41        1       39 1
  42        2       40 1
  43        2       41 1
  44        8       42 1
  45        8       43 1
  46       10       44 1
  47       10       45 1
  48       11       46 1
  49       11       47 1
  50       12       48 1
  51       15       49 1
  52       17       50 1
  53       17       51 1
  54       17       52 1
  55       18       53 1
  56       19       54 1
  57       19       55 1
  58       19       56 1
  59       20       57 1
  60       20       58 1
  61       20       59 1
  62       21       60 1
  63       21       61 1
  64       22       62 1
  65       22       63 1
  66       23       64 1
  67       26       65 1
  68       29       66 1
  69       30       67 1
  70       33       68 1
  71       34       69 1

@<TRIPOS>MOLECULE

  69   71
SMALL
USER_CHARGES
@<TRIPOS>ATOM
   1 C1           0.0921     2.2270    -2.7927 C.3          1    LIG   0.0000
   2 C2          -1.3339     1.8333    -2.4435 C.3          1    LIG   0.0000
   3 O3          -1.3363     1.0855    -1.2363 O.3          1    LIG   0.0000
   4 C4          -1.4616     1.7882    -0.1379 C.2          1    LIG   0.0000
   5 O5          -1.5645     2.9823    -0.1979 O.2          1    LIG   0.0000
   6 C6          -1.4761     1.1232     1.1506 C.2          1    LIG   0.0000
   7 C7          -0.3274     0.7489     1.7000 C.2          1    LIG   0.0000
   8 C8           1.0000     1.0000     1.0000 C.3          1    LIG   0.0000
   9 N9           1.8488     1.8488     1.8488 N.3          1    LIG   0.0000
  10 C10          2.9004     2.4941     1.0474 C.3          1    LIG   0.0000
  11 C11          3.7590     3.4315     1.8838 C.3          1    LIG   0.0000
  12 C12          3.3374     3.4284     3.3462 C.3          1    LIG   0.0000
  13 C13          4.1579     4.4149     4.1617 C.2          1    LIG   0.0000
  14 O14          4.8209     4.0262     5.0832 O.2          1    LIG   0.0000
  15 N15          4.1403     5.7475     3.8444 N.am         1    LIG   0.0000
  16 C16          4.9336     6.7013     4.6329 C.3          1    LIG   0.0000
  17 C17          4.0101     7.7357     5.2554 C.3          1    LIG   0.0000
  18 C18          5.9363     7.3972     3.7269 C.3          1    LIG   0.0000
  19 C19          6.7566     8.3835     4.5422 C.3          1    LIG   0.0000
  20 C20          6.8598     6.3628     3.1044 C.3          1    LIG   0.0000
  21 C21          1.8582     3.7788     3.4129 C.3          1    LIG   0.0000
  22 C22          1.0230     2.8387     2.5573 C.3          1    LIG   0.0000
  23 N23         -0.2925     0.1209     2.9503 N.am         1    LIG   0.0000
  24 C24         -1.4722    -0.1292     3.6640 C.2          1    LIG   0.0000
  25 O25         -1.4391    -0.6771     4.7527 O.2          1    LIG   0.0000
  26 N26         -2.7187     0.2429     3.1394 N.am         1    LIG   0.0000
  27 C27         -2.8205     0.8892     1.8229 C.3          1    LIG   0.0000
  28 C28         -3.6442     2.1653     1.8827 C.ar         1    LIG   0.0000
  29 C29         -3.3600     3.1219     2.8511 C.ar         1    LIG   0.0000
  30 C30         -4.1085     4.2927     2.9133 C.ar         1    LIG   0.0000
  31 C31         -5.1384     4.4889     1.9990 C.ar         1    LIG   0.0000
  32 Cl32        -6.1009     5.9842     2.0725 Cl           1    LIG   0.0000
  33 C33         -5.4307     3.5374     1.0274 C.ar         1    LIG   0.0000
  34 C34         -4.6758     2.3695     0.9729 C.ar         1    LIG   0.0000
  35 H            5.4213     6.2118     5.3558 H            1    LIG   0.0000
  36 H           -3.3237     0.2556     1.2353 H            1    LIG   0.0000
  37 H            0.0938     2.7536    -3.6428 H            1    LIG   0.0000
  38 H            0.4744     2.7835    -2.0551 H            1    LIG   0.0000
  39 H            0.6462     1.4029    -2.9101 H            1    LIG   0.0000
  40 H           -1.8880     2.6575    -2.3261 H            1    LIG   0.0000
  41 H           -1.7163     1.2768    -3.1811 H            1    LIG   0.0000
  42 H            1.4601     0.1276     0.8350 H            1    LIG   0.0000
  43 H            0.8350     1.4601     0.1276 H            1    LIG   0.0000
  44 H            2.4704     3.0190     0.3129 H            1    LIG   0.0000
  45 H            3.4858     1.7860     0.6525 H            1    LIG   0.0000
  46 H            4.7132     3.1391     1.8213 H            1    LIG   0.0000
  47 H            3.6706     4.3600     1.5232 H            1    LIG   0.0000
  48 H            3.4699     2.5103     3.7196 H            1    LIG   0.0000
  49 H            3.5878     6.0714     3.0764 H            1    LIG   0.0000
  50 H            4.5498     8.3846     5.7918 H            1    LIG   0.0000
  51 H            3.5225     8.2252     4.5325 H            1    LIG   0.0000
  52 H            3.3505     7.2779     5.8515 H            1    LIG   0.0000
  53 H            5.4486     7.8867     3.0040 H            1    LIG   0.0000
  54 H            7.4163     8.8413     3.9462 H            1    LIG   0.0000
  55 H            6.1490     9.0640     4.9518 H            1    LIG   0.0000
  56 H            7.2443     7.8939     5.2651 H            1    LIG   0.0000
  57 H            7.5194     6.8206     2.5083 H            1    LIG   0.0000
  58 H            7.3474     5.8733     3.8273 H            1    LIG   0.0000
  59 H            6.3201     5.7140     2.5680 H            1    LIG   0.0000
  60 H            1.7311     4.7152     3.0856 H            1    LIG   0.0000
  61 H            1.5513     3.7130     4.3624 H            1    LIG   0.0000
  62 H            0.3765     2.3552     3.1475 H            1    LIG   0.0000
  63 H            0.5191     3.3790     1.8833 H            1    LIG   0.0000
  64 H            0.5868    -0.1531     3.3399 H            1    LIG   0.0000
  65 H           -3.5491     0.0661     3.6678 H            1    LIG   0.0000
  66 H           -2.6173     2.9681     3.5029 H            1    LIG   0.0000
  67 H           -3.9086     4.9850     3.6067 H            1    LIG   0.0000
  68 H           -6.1741     3.6906     0.3763 H            1    LIG   0.0000
  69 H           -4.8751     1.6772     0.2794 H            1    LIG   0.0000
@<TRIPOS>BOND
   1        1        2 1
   2        2        3 1
   3        3        4 1
   4        4        5 2
   5        4        6 1
   6        6        7 2
   7        7        8 1
   8        8        9 1
   9        9       10 1
  10       10       11 1
  11       11       12 1
  12       12       13 1
  13       13       14 2
  14       13       15 am
  15       15       16 1
  16       16       17 1
  17       16       18 1
  18       18       19 1
  19       18       20 1
  20       12       21 1
  21       21       22 1
  22       22        9 1
  23        7       23 1
  24       23       24 am
  25       24       25 2
  26       24       26 am
  27       26       27 1
  28       27        6 1
  29       27       28 1
  30       28       29 ar
  31       29       30 ar
  32       30       31 ar
  33       31       32 1
  34       31       33 ar
  35       33       34 ar
  36       34       28 ar
  37       16       35 1
  38       27       36 1
  39        1       37 1
  40        1       38 1
  41        1       39 1
  42        2       40 1
  43        2       41 1
  44        8       42 1
  45        8       43 1
  46       10       44 1
  47       10       45 1
  48       11       46 1
  49       11       47 1
  50       12       48 1
  51       15       49 1
  52       17       50 1
  53       17       51 1
  54       17       52 1
  55       18       53 1
  56       19       54 1
  57       19       55 1
  58       19       56 1
  59       20       57 1
  60       20       58 1
  61       20       59 1
  62       21       60 1
  63       21       61 1
  64       22       62 1
  65       22       63 1
  66       23       64 1
  67       26       65 1
  68       29       66 1
  69       30       67 1
  70       33       68 1
  71       34       69 1

@<TRIPOS>MOLECULE

  69   71
SMALL
USER_CHARGES
@<TRIPOS>ATOM
   1 C1          -0.8519     5.0982    -1.4478 C.3          1    LIG   0.0000
   2 C2          -1.1937     3.6190    -1.5202 C.3          1    LIG   0.0000
   3 O3          -1.1809     3.0656    -0.2125 O.3          1    LIG   0.0000
   4 C4          -1.4616     1.7882    -0.1379 C.2          1    LIG   0.0000
   5 O5          -1.7069     1.1685    -1.1358 O.2          1    LIG   0.0000
   6 C6          -1.4761     1.1232     1.1506 C.2          1    LIG   0.0000
   7 C7          -0.3274     0.7489     1.7000 C.2          1    LIG   0.0000
   8 C8           1.0000     1.0000     1.0000 C.3          1    LIG   0.0000
   9 N9           1.8486     1.8486     1.8486 N.3          1    LIG   0.0000
  10 C10          1.3110     3.2179     1.9122 C.3          1    LIG   0.0000
  11 C11          2.1752     4.1320     2.7691 C.3          1    LIG   0.0000
  12 C12          3.3789     3.3936     3.3364 C.3          1    LIG   0.0000
  13 C13          4.2749     4.3480     4.1117 C.2          1    LIG   0.0000
  14 O14          3.9799     5.5077     4.2024 O.2          1    LIG   0.0000
  15 N15          5.4184     3.8835     4.7063 N.am         1    LIG   0.0000
  16 C16          6.2841     4.8057     5.4554 C.3          1    LIG   0.0000
  17 C17          7.6672     4.8268     4.8253 C.3          1    LIG   0.0000
  18 C18          6.3916     4.3403     6.8984 C.3          1    LIG   0.0000
  19 C19          7.2867     5.2938     7.6729 C.3          1    LIG   0.0000
  20 C20          5.0085     4.3192     7.5284 C.3          1    LIG   0.0000
  21 C21          4.1329     2.7738     2.1693 C.3          1    LIG   0.0000
  22 C22          3.2408     1.8305     1.3726 C.3          1    LIG   0.0000
  23 N23         -0.2925     0.1209     2.9503 N.am         1    LIG   0.0000
  24 C24         -1.4722    -0.1292     3.6640 C.2          1    LIG   0.0000
  25 O25         -1.4391    -0.6771     4.7527 O.2          1    LIG   0.0000
  26 N26         -2.7187     0.2429     3.1394 N.am         1    LIG   0.0000
  27 C27         -2.8205     0.8892     1.8229 C.3          1    LIG   0.0000
  28 C28         -3.6442     2.1653     1.8827 C.ar         1    LIG   0.0000
  29 C29         -3.3600     3.1219     2.8511 C.ar         1    LIG   0.0000
  30 C30         -4.1085     4.2927     2.9133 C.ar         1    LIG   0.0000
  31 C31         -5.1384     4.4889     1.9990 C.ar         1    LIG   0.0000
  32 Cl32        -6.1009     5.9842     2.0725 Cl           1    LIG   0.0000
  33 C33         -5.4307     3.5374     1.0274 C.ar         1    LIG   0.0000
  34 C34         -4.6758     2.3695     0.9729 C.ar         1    LIG   0.0000
  35 H            5.8922     5.7254     5.4301 H            1    LIG   0.0000
  36 H           -3.3237     0.2556     1.2353 H            1    LIG   0.0000
  37 H           -0.8609     5.4879    -2.3687 H            1    LIG   0.0000
  38 H           -1.5271     5.5690    -0.8800 H            1    LIG   0.0000
  39 H            0.0574     5.2110    -1.0470 H            1    LIG   0.0000
  40 H           -2.1030     3.5062    -1.9209 H            1    LIG   0.0000
  41 H           -0.5185     3.1482    -2.0880 H            1    LIG   0.0000
  42 H            1.4601     0.1276     0.8350 H            1    LIG   0.0000
  43 H            0.8350     1.4601     0.1276 H            1    LIG   0.0000
  44 H            0.3907     3.1853     2.3020 H            1    LIG   0.0000
  45 H            1.2674     3.5907     0.9853 H            1    LIG   0.0000
  46 H            2.4971     4.8945     2.2078 H            1    LIG   0.0000
  47 H            1.6243     4.4843     3.5256 H            1    LIG   0.0000
  48 H            3.0628     2.6679     3.9476 H            1    LIG   0.0000
  49 H            5.6642     2.9172     4.6307 H            1    LIG   0.0000
  50 H            8.2561     5.4541     5.3349 H            1    LIG   0.0000
  51 H            8.0590     3.9071     4.8506 H            1    LIG   0.0000
  52 H            7.5964     5.1330     3.8760 H            1    LIG   0.0000
  53 H            6.7835     3.4206     6.9236 H            1    LIG   0.0000
  54 H            7.3575     4.9876     8.6222 H            1    LIG   0.0000
  55 H            8.1967     5.3077     7.2584 H            1    LIG   0.0000
  56 H            6.8949     6.2135     7.6477 H            1    LIG   0.0000
  57 H            5.0793     4.0129     8.4777 H            1    LIG   0.0000
  58 H            4.6167     5.2388     7.5031 H            1    LIG   0.0000
  59 H            4.4196     3.6918     7.0188 H            1    LIG   0.0000
  60 H            4.9157     2.2614     2.5224 H            1    LIG   0.0000
  61 H            4.4565     3.5031     1.5664 H            1    LIG   0.0000
  62 H            3.2564     2.1071     0.4117 H            1    LIG   0.0000
  63 H            3.5983     0.9005     1.4575 H            1    LIG   0.0000
  64 H            0.5868    -0.1531     3.3399 H            1    LIG   0.0000
  65 H           -3.5491     0.0661     3.6678 H            1    LIG   0.0000
  66 H           -2.6173     2.9681     3.5029 H            1    LIG   0.0000
  67 H           -3.9086     4.9850     3.6067 H            1    LIG   0.0000
  68 H           -6.1741     3.6906     0.3763 H            1    LIG   0.0000
  69 H           -4.8751     1.6772     0.2794 H            1    LIG   0.0000
@<TRIPOS>BOND
   1        1        2 1
   2        2        3 1
   3        3        4 1
   4        4        5 2
   5        4        6 1
   6        6        7 2
   7        7        8 1
   8        8        9 1
   9        9       10 1
  10       10       11 1
  11       11       12 1
  12       12       13 1
  13       13       14 2
  14       13       15 am
  15       15       16 1
  16       16       17 1
  17       16       18 1
  18       18       19 1
  19       18       20 1
  20       12       21 1
  21       21       22 1
  22       22        9 1
  23        7       23 1
  24       23       24 am
  25       24       25 2
  26       24       26 am
  27       26       27 1
  28       27        6 1
  29       27       28 1
  30       28       29 ar
  31       29       30 ar
  32       30       31 ar
  33       31       32 1
  34       31       33 ar
  35       33       34 ar
  36       34       28 ar
  37       16       35 1
  38       27       36 1
  39        1       37 1
  40        1       38 1
  41        1       39 1
  42        2       40 1
  43        2       41 1
  44        8       42 1
  45        8       43 1
  46       10       44 1
  47       10       45 1
  48       11       46 1
  49       11       47 1
  50       12       48 1
  51       15       49 1
  52       17       50 1
  53       17       51 1
  54       17       52 1
  55       18       53 1
  56       19       54 1
  57       19       55 1
  58       19       56 1
  59       20       57 1
  60       20       58 1
  61       20       59 1
  62       21       60 1
  63       21       61 1
  64       22       62 1
  65       22       63 1
  66       23       64 1
  67       26       65 1
  68       29       66 1
  69       30       67 1
  70       33       68 1
  71       34       69 1

@<TRIPOS>MOLECULE

  69   71
SMALL
USER_CHARGES
@<TRIPOS>ATOM
   1 C1          -2.5888     4.1306    -1.8402 C.3          1    LIG   0.0000
   2 C2          -1.1937     3.6190    -1.5202 C.3          1    LIG   0.0000
   3 O3          -1.1809     3.0656    -0.2125 O.3          1    LIG   0.0000
   4 C4          -1.4616     1.7882    -0.1379 C.2          1    LIG   0.0000
   5 O5          -1.7069     1.1685    -1.1358 O.2          1    LIG   0.0000
   6 C6          -1.4761     1.1232     1.1506 C.2          1    LIG   0.0000
   7 C7          -0.3274     0.7489     1.7000 C.2          1    LIG   0.0000
   8 C8           1.0000     1.0000     1.0000 C.3          1    LIG   0.0000
   9 N9           1.8486     1.8486     1.8486 N.3          1    LIG   0.0000
  10 C10          1.3110     3.2179     1.9122 C.3          1    LIG   0.0000
  11 C11          2.1752     4.1320     2.7691 C.3          1    LIG   0.0000
  12 C12          3.3789     3.3936     3.3364 C.3          1    LIG   0.0000
  13 C13          4.2749     4.3480     4.1117 C.2          1    LIG   0.0000
  14 O14          5.4149     4.5092     3.7733 O.2          1    LIG   0.0000
  15 N15          3.7802     5.0234     5.1961 N.am         1    LIG   0.0000
  16 C16          4.6458     5.9456     5.9452 C.3          1    LIG   0.0000
  17 C17          4.7534     5.4801     7.3882 C.3          1    LIG   0.0000
  18 C18          4.0502     7.3435     5.9069 C.3          1    LIG   0.0000
  19 C19          4.9453     8.2971     6.6814 C.3          1    LIG   0.0000
  20 C20          3.9427     7.8090     4.4639 C.3          1    LIG   0.0000
  21 C21          4.1329     2.7738     2.1693 C.3          1    LIG   0.0000
  22 C22          3.2408     1.8305     1.3726 C.3          1    LIG   0.0000
  23 N23         -0.2925     0.1209     2.9503 N.am         1    LIG   0.0000
  24 C24         -1.4722    -0.1292     3.6640 C.2          1    LIG   0.0000
  25 O25         -1.4391    -0.6771     4.7527 O.2          1    LIG   0.0000
  26 N26         -2.7187     0.2429     3.1394 N.am         1    LIG   0.0000
  27 C27         -2.8205     0.8892     1.8229 C.3          1    LIG   0.0000
  28 C28         -3.6442     2.1653     1.8827 C.ar         1    LIG   0.0000
  29 C29         -3.3600     3.1219     2.8511 C.ar         1    LIG   0.0000
  30 C30         -4.1085     4.2927     2.9133 C.ar         1    LIG   0.0000
  31 C31         -5.1384     4.4889     1.9990 C.ar         1    LIG   0.0000
  32 Cl32        -6.1009     5.9842     2.0725 Cl           1    LIG   0.0000
  33 C33         -5.4307     3.5374     1.0274 C.ar         1    LIG   0.0000
  34 C34         -4.6758     2.3695     0.9729 C.ar         1    LIG   0.0000
  35 H            5.5558     5.9595     5.5307 H            1    LIG   0.0000
  36 H           -3.3237     0.2556     1.2353 H            1    LIG   0.0000
  37 H           -2.5979     4.5203    -2.7611 H            1    LIG   0.0000
  38 H           -3.2406     3.3737    -1.7921 H            1    LIG   0.0000
  39 H           -2.8458     4.8344    -1.1779 H            1    LIG   0.0000
  40 H           -0.9367     2.9152    -2.1825 H            1    LIG   0.0000
  41 H           -0.5420     4.3758    -1.5683 H            1    LIG   0.0000
  42 H            1.4601     0.1276     0.8350 H            1    LIG   0.0000
  43 H            0.8350     1.4601     0.1276 H            1    LIG   0.0000
  44 H            0.3907     3.1853     2.3020 H            1    LIG   0.0000
  45 H            1.2674     3.5907     0.9853 H            1    LIG   0.0000
  46 H            2.4971     4.8945     2.2078 H            1    LIG   0.0000
  47 H            1.6243     4.4843     3.5256 H            1    LIG   0.0000
  48 H            3.0628     2.6679     3.9476 H            1    LIG   0.0000
  49 H            2.8302     4.8891     5.4781 H            1    LIG   0.0000
  50 H            5.3423     6.1075     7.8978 H            1    LIG   0.0000
  51 H            3.8435     5.4663     7.8027 H            1    LIG   0.0000
  52 H            5.1453     4.5605     7.4134 H            1    LIG   0.0000
  53 H            3.1403     7.3297     6.3213 H            1    LIG   0.0000
  54 H            4.5535     9.2168     6.6562 H            1    LIG   0.0000
  55 H            5.0161     7.9909     7.6307 H            1    LIG   0.0000
  56 H            5.8553     8.3110     6.2669 H            1    LIG   0.0000
  57 H            3.5508     8.7287     4.4386 H            1    LIG   0.0000
  58 H            4.8526     7.8229     4.0494 H            1    LIG   0.0000
  59 H            3.3538     7.1817     3.9543 H            1    LIG   0.0000
  60 H            4.9157     2.2614     2.5224 H            1    LIG   0.0000
  61 H            4.4565     3.5031     1.5664 H            1    LIG   0.0000
  62 H            3.2564     2.1071     0.4117 H            1    LIG   0.0000
  63 H            3.5983     0.9005     1.4575 H            1    LIG   0.0000
  64 H            0.5868    -0.1531     3.3399 H            1    LIG   0.0000
  65 H           -3.5491     0.0661     3.6678 H            1    LIG   0.0000
  66 H           -2.6173     2.9681     3.5029 H            1    LIG   0.0000
  67 H           -3.9086     4.9850     3.6067 H            1    LIG   0.0000
  68 H           -6.1741     3.6906     0.3763 H            1    LIG   0.0000
  69 H           -4.8751     1.6772     0.2794 H            1    LIG   0.0000
@<TRIPOS>BOND
   1        1        2 1
   2        2        3 1
   3        3        4 1
   4        4        5 2
   5        4        6 1
   6        6        7 2
   7        7        8 1
   8        8        9 1
   9        9       10 1
  10       10       11 1
  11       11       12 1
  12       12       13 1
  13       13       14 2
  14       13       15 am
  15       15       16 1
  16       16       17 1
  17       16       18 1
  18       18       19 1
  19       18       20 1
  20       12       21 1
  21       21       22 1
  22       22        9 1
  23        7       23 1
  24       23       24 am
  25       24       25 2
  26       24       26 am
  27       26       27 1
  28       27        6 1
  29       27       28 1
  30       28       29 ar
  31       29       30 ar
  32       30       31 ar
  33       31       32 1
  34       31       33 ar
  35       33       34 ar
  36       34       28 ar
  37       16       35 1
  38       27       36 1
  39        1       37 1
  40        1       38 1
  41        1       39 1
  42        2       40 1
  43        2       41 1
  44        8       42 1
  45        8       43 1
  46       10       44 1
  47       10       45 1
  48       11       46 1
  49       11       47 1
  50       12       48 1
  51       15       49 1
  52       17       50 1
  53       17       51 1
  54       17       52 1
  55       18       53 1
  56       19       54 1
  57       19       55 1
  58       19       56 1
  59       20       57 1
  60       20       58 1
  61       20       59 1
  62       21       60 1
  63       21       61 1
  64       22       62 1
  65       22       63 1
  66       23       64 1
  67       26       65 1
  68       29       66 1
  69       30       67 1
  70       33       68 1
  71       34       69 1

@<TRIPOS>MOLECULE

  69   71
SMALL
USER_CHARGES
@<TRIPOS>ATOM
   1 C1           0.2420    -4.4647     0.4442 C.3          1    LIG   0.0000
   2 C2           0.9921    -3.1673     0.1901 C.3          1    LIG   0.0000
   3 O3           0.1271    -2.0664     0.4267 O.3          1    LIG   0.0000
   4 C4           0.1244    -1.6045     1.6526 C.2          1    LIG   0.0000
   5 O5           0.8236    -2.1109     2.4861 O.2          1    LIG   0.0000
   6 C6          -0.7233    -0.4813     2.0023 C.2          1    LIG   0.0000
   7 C7          -0.3274     0.7489     1.7000 C.2          1    LIG   0.0000
   8 C8           1.0000     1.0000     1.0000 C.3          1    LIG   0.0000
   9 N9           1.8486     1.8486     1.8486 N.3          1    LIG   0.0000
  10 C10          3.2619     1.7246     1.4546 C.3          1    LIG   0.0000
  11 C11          4.1748     2.5768     2.3248 C.3          1    LIG   0.0000
  12 C12          3.3889     3.3354     3.3845 C.3          1    LIG   0.0000
  13 C13          4.3301     4.1064     4.2981 C.2          1    LIG   0.0000
  14 O14          4.3455     3.8762     5.4757 O.2          1    LIG   0.0000
  15 N15          5.1600     5.0635     3.7763 N.am         1    LIG   0.0000
  16 C16          6.0693     5.8083     4.6590 C.3          1    LIG   0.0000
  17 C17          5.7503     7.2923     4.5792 C.3          1    LIG   0.0000
  18 C18          7.5057     5.5746     4.2204 C.3          1    LIG   0.0000
  19 C19          8.4460     6.3448     5.1331 C.3          1    LIG   0.0000
  20 C20          7.8247     4.0906     4.3002 C.3          1    LIG   0.0000
  21 C21          2.5808     2.3185     4.1767 C.3          1    LIG   0.0000
  22 C22          1.6481     1.5258     3.2701 C.3          1    LIG   0.0000
  23 N23         -1.1219     1.8609     2.0018 N.am         1    LIG   0.0000
  24 C24         -2.3648     1.7088     2.6307 C.2          1    LIG   0.0000
  25 O25         -3.0547     2.6792     2.8932 O.2          1    LIG   0.0000
  26 N26         -2.8417     0.4354     2.9753 N.am         1    LIG   0.0000
  27 C27         -2.0442    -0.7686     2.7003 C.3          1    LIG   0.0000
  28 C28         -2.8501    -1.8222     1.9581 C.ar         1    LIG   0.0000
  29 C29         -3.5637    -1.4654     0.8193 C.ar         1    LIG   0.0000
  30 C30         -4.3039    -2.4230     0.1336 C.ar         1    LIG   0.0000
  31 C31         -4.3194    -3.7325     0.6028 C.ar         1    LIG   0.0000
  32 Cl32        -5.2645    -4.9633    -0.2687 Cl           1    LIG   0.0000
  33 C33         -3.6095    -4.0987     1.7415 C.ar         1    LIG   0.0000
  34 C34         -2.8714    -3.1335     2.4202 C.ar         1    LIG   0.0000
  35 H            5.9528     5.4926     5.6007 H            1    LIG   0.0000
  36 H           -1.8136    -1.1638     3.5895 H            1    LIG   0.0000
  37 H            0.8512    -5.2401     0.2776 H            1    LIG   0.0000
  38 H           -0.0739    -4.4868     1.3928 H            1    LIG   0.0000
  39 H           -0.5447    -4.5208    -0.1705 H            1    LIG   0.0000
  40 H            1.7788    -3.1112     0.8049 H            1    LIG   0.0000
  41 H            1.3080    -3.1452    -0.7584 H            1    LIG   0.0000
  42 H            1.4601     0.1276     0.8350 H            1    LIG   0.0000
  43 H            0.8350     1.4601     0.1276 H            1    LIG   0.0000
  44 H            3.3583     2.0167     0.5031 H            1    LIG   0.0000
  45 H            3.5375     0.7670     1.5389 H            1    LIG   0.0000
  46 H            4.8398     1.9825     2.7771 H            1    LIG   0.0000
  47 H            4.6556     3.2341     1.7445 H            1    LIG   0.0000
  48 H            2.7651     3.9762     2.9370 H            1    LIG   0.0000
  49 H            5.1471     5.2553     2.7950 H            1    LIG   0.0000
  50 H            6.3689     7.7991     5.1796 H            1    LIG   0.0000
  51 H            5.8668     7.6081     3.6375 H            1    LIG   0.0000
  52 H            4.8053     7.4461     4.8678 H            1    LIG   0.0000
  53 H            7.6223     5.8903     3.2787 H            1    LIG   0.0000
  54 H            9.3910     6.1910     4.8445 H            1    LIG   0.0000
  55 H            8.2361     7.3211     5.0805 H            1    LIG   0.0000
  56 H            8.3294     6.0290     6.0747 H            1    LIG   0.0000
  57 H            8.7697     3.9367     4.0116 H            1    LIG   0.0000
  58 H            7.7082     3.7748     5.2419 H            1    LIG   0.0000
  59 H            7.2061     3.5838     3.6998 H            1    LIG   0.0000
  60 H            2.0362     2.7993     4.8640 H            1    LIG   0.0000
  61 H            3.2084     1.6864     4.6312 H            1    LIG   0.0000
  62 H            1.8192     0.5499     3.4061 H            1    LIG   0.0000
  63 H            0.7024     1.7360     3.5179 H            1    LIG   0.0000
  64 H           -0.7980     2.7769     1.7653 H            1    LIG   0.0000
  65 H           -3.7359     0.3454     3.4138 H            1    LIG   0.0000
  66 H           -3.5448    -0.5203     0.4931 H            1    LIG   0.0000
  67 H           -4.8186    -2.1731    -0.6865 H            1    LIG   0.0000
  68 H           -3.6293    -5.0435     2.0684 H            1    LIG   0.0000
  69 H           -2.3563    -3.3831     3.2403 H            1    LIG   0.0000
@<TRIPOS>BOND
   1        1        2 1
   2        2        3 1
   3        3        4 1
   4        4        5 2
   5        4        6 1
   6        6        7 2
   7        7        8 1
   8        8        9 1
   9        9       10 1
  10       10       11 1
  11       11       12 1
  12       12       13 1
  13       13       14 2
  14       13       15 am
  15       15       16 1
  16       16       17 1
  17       16       18 1
  18       18       19 1
  19       18       20 1
  20       12       21 1
  21       21       22 1
  22       22        9 1
  23        7       23 1
  24       23       24 am
  25       24       25 2
  26       24       26 am
  27       26       27 1
  28       27        6 1
  29       27       28 1
  30       28       29 ar
  31       29       30 ar
  32       30       31 ar
  33       31       32 1
  34       31       33 ar
  35       33       34 ar
  36       34       28 ar
  37       16       35 1
  38       27       36 1
  39        1       37 1
  40        1       38 1
  41        1       39 1
  42        2       40 1
  43        2       41 1
  44        8       42 1
  45        8       43 1
  46       10       44 1
  47       10       45 1
  48       11       46 1
  49       11       47 1
  50       12       48 1
  51       15       49 1
  52       17       50 1
  53       17       51 1
  54       17       52 1
  55       18       53 1
  56       19       54 1
  57       19       55 1
  58       19       56 1
  59       20       57 1
  60       20       58 1
  61       20       59 1
  62       21       60 1
  63       21       61 1
  64       22       62 1
  65       22       63 1
  66       23       64 1
  67       26       65 1
  68       29       66 1
  69       30       67 1
  70       33       68 1
  71       34       69 1

