@<TRIPOS>MOLECULE
*****
 69 71 0 0 0
SMALL
USER_CHARGES

@<TRIPOS>ATOM
      1 C1         -0.8519    5.0982   -1.4478 C.3     1  LIG1        0.0000
      2 C2         -1.1937    3.6190   -1.5202 C.3     1  LIG1        0.0000
      3 O3         -1.1809    3.0656   -0.2125 O.3     1  LIG1        0.0000
      4 C4         -1.4616    1.7882   -0.1379 C.2     1  LIG1        0.0000
      5 O5         -1.7069    1.1685   -1.1358 O.2     1  LIG1        0.0000
      6 C6         -1.4761    1.1232    1.1506 C.2     1  LIG1        0.0000
      7 C7         -0.3274    0.7489    1.7000 C.2     1  LIG1        0.0000
      8 C8          1.0000    1.0000    1.0000 C.3     1  LIG1        0.0000
      9 N9          1.8486    1.8486    1.8486 N.3     1  LIG1        0.0000
     10 C10         1.3110    3.2179    1.9122 C.3     1  LIG1        0.0000
     11 C11         2.1752    4.1320    2.7691 C.3     1  LIG1        0.0000
     12 C12         3.3789    3.3936    3.3364 C.3     1  LIG1        0.0000
     13 C13         4.2749    4.3480    4.1117 C.2     1  LIG1        0.0000
     14 O14         3.9799    5.5077    4.2024 O.2     1  LIG1        0.0000
     15 N15         5.4184    3.8835    4.7063 N.am    1  LIG1        0.0000
     16 C16         6.2841    4.8057    5.4554 C.3     1  LIG1        0.0000
     17 C17         7.6672    4.8268    4.8253 C.3     1  LIG1        0.0000
     18 C18         6.3916    4.3403    6.8984 C.3     1  LIG1        0.0000
     19 C19         7.2867    5.2938    7.6729 C.3     1  LIG1        0.0000
     20 C20         5.0085    4.3192    7.5284 C.3     1  LIG1        0.0000
     21 C21         4.1329    2.7738    2.1693 C.3     1  LIG1        0.0000
     22 C22         3.2408    1.8305    1.3726 C.3     1  LIG1        0.0000
     23 N23        -0.2925    0.1209    2.9503 N.am    1  LIG1        0.0000
     24 C24        -1.4722   -0.1292    3.6640 C.2     1  LIG1        0.0000
     25 O25        -1.4391   -0.6771    4.7527 O.2     1  LIG1        0.0000
     26 N26        -2.7187    0.2429    3.1394 N.am    1  LIG1        0.0000
     27 C27        -2.8205    0.8892    1.8229 C.3     1  LIG1        0.0000
     28 C28        -3.6442    2.1653    1.8827 C.3     1  LIG1        0.0000
     29 C29        -3.3600    3.1219    2.8511 C.3     1  LIG1        0.0000
     30 C30        -4.1085    4.2927    2.9133 C.3     1  LIG1        0.0000
     31 C31        -5.1384    4.4889    1.9990 C.3     1  LIG1        0.0000
     32 Cl32       -6.1009    5.9842    2.0725 Cl      1  LIG1        0.0000
     33 C33        -5.4307    3.5374    1.0274 C.3     1  LIG1        0.0000
     34 C34        -4.6758    2.3695    0.9729 C.3     1  LIG1        0.0000
     35 H           5.8922    5.7254    5.4301 H       1  LIG1        0.0000
     36 H          -3.3237    0.2556    1.2353 H       1  LIG1        0.0000
     37 H          -0.8609    5.4879   -2.3687 H       1  LIG1        0.0000
     38 H          -1.5271    5.5690   -0.8800 H       1  LIG1        0.0000
     39 H           0.0574    5.2110   -1.0470 H       1  LIG1        0.0000
     40 H          -2.1030    3.5062   -1.9209 H       1  LIG1        0.0000
     41 H          -0.5185    3.1482   -2.0880 H       1  LIG1        0.0000
     42 H           1.4601    0.1276    0.8350 H       1  LIG1        0.0000
     43 H           0.8350    1.4601    0.1276 H       1  LIG1        0.0000
     44 H           0.3907    3.1853    2.3020 H       1  LIG1        0.0000
     45 H           1.2674    3.5907    0.9853 H       1  LIG1        0.0000
     46 H           2.4971    4.8945    2.2078 H       1  LIG1        0.0000
     47 H           1.6243    4.4843    3.5256 H       1  LIG1        0.0000
     48 H           3.0628    2.6679    3.9476 H       1  LIG1        0.0000
     49 H           5.6642    2.9172    4.6307 H       1  LIG1        0.0000
     50 H           8.2561    5.4541    5.3349 H       1  LIG1        0.0000
     51 H           8.0590    3.9071    4.8506 H       1  LIG1        0.0000
     52 H           7.5964    5.1330    3.8760 H       1  LIG1        0.0000
     53 H           6.7835    3.4206    6.9236 H       1  LIG1        0.0000
     54 H           7.3575    4.9876    8.6222 H       1  LIG1        0.0000
     55 H           8.1967    5.3077    7.2584 H       1  LIG1        0.0000
     56 H           6.8949    6.2135    7.6477 H       1  LIG1        0.0000
     57 H           5.0793    4.0129    8.4777 H       1  LIG1        0.0000
     58 H           4.6167    5.2388    7.5031 H       1  LIG1        0.0000
     59 H           4.4196    3.6918    7.0188 H       1  LIG1        0.0000
     60 H           4.9157    2.2614    2.5224 H       1  LIG1        0.0000
     61 H           4.4565    3.5031    1.5664 H       1  LIG1        0.0000
     62 H           3.2564    2.1071    0.4117 H       1  LIG1        0.0000
     63 H           3.5983    0.9005    1.4575 H       1  LIG1        0.0000
     64 H           0.5868   -0.1531    3.3399 H       1  LIG1        0.0000
     65 H          -3.5491    0.0661    3.6678 H       1  LIG1        0.0000
     66 H          -2.6173    2.9681    3.5029 H       1  LIG1        0.0000
     67 H          -3.9086    4.9850    3.6067 H       1  LIG1        0.0000
     68 H          -6.1741    3.6906    0.3763 H       1  LIG1        0.0000
     69 H          -4.8751    1.6772    0.2794 H       1  LIG1        0.0000
@<TRIPOS>BOND
     1     1     2    1
     2     2     3    1
     3     3     4    1
     4     4     5    2
     5     4     6    1
     6     6     7    2
     7     7     8    1
     8     8     9    1
     9     9    10    1
    10    10    11    1
    11    11    12    1
    12    12    13    1
    13    13    14    2
    14    13    15   am
    15    15    16    1
    16    16    17    1
    17    16    18    1
    18    18    19    1
    19    18    20    1
    20    12    21    1
    21    21    22    1
    22    22     9    1
    23     7    23    1
    24    23    24   am
    25    24    25    2
    26    24    26   am
    27    26    27    1
    28    27     6    1
    29    27    28    1
    30    28    29   ar
    31    29    30   ar
    32    30    31   ar
    33    31    32    1
    34    31    33   ar
    35    33    34   ar
    36    34    28   ar
    37    16    35    1
    38    27    36    1
    39     1    37    1
    40     1    38    1
    41     1    39    1
    42     2    40    1
    43     2    41    1
    44     8    42    1
    45     8    43    1
    46    10    44    1
    47    10    45    1
    48    11    46    1
    49    11    47    1
    50    12    48    1
    51    15    49    1
    52    17    50    1
    53    17    51    1
    54    17    52    1
    55    18    53    1
    56    19    54    1
    57    19    55    1
    58    19    56    1
    59    20    57    1
    60    20    58    1
    61    20    59    1
    62    21    60    1
    63    21    61    1
    64    22    62    1
    65    22    63    1
    66    23    64    1
    67    26    65    1
    68    29    66    1
    69    30    67    1
    70    33    68    1
    71    34    69    1
