@<TRIPOS>MOLECULE
*****
 69 71 0 0 0
SMALL
USER_CHARGES

@<TRIPOS>ATOM
      1 C1          0.8876   -3.5900   -1.2662 C.3     1  LIG1        0.0000
      2 C2          0.9921   -3.1673    0.1901 C.3     1  LIG1        0.0000
      3 O3          0.1271   -2.0664    0.4267 O.3     1  LIG1        0.0000
      4 C4          0.1244   -1.6045    1.6526 C.2     1  LIG1        0.0000
      5 O5          0.8236   -2.1109    2.4861 O.2     1  LIG1        0.0000
      6 C6         -0.7233   -0.4813    2.0023 C.2     1  LIG1        0.0000
      7 C7         -0.3274    0.7489    1.7000 C.2     1  LIG1        0.0000
      8 C8          1.0000    1.0000    1.0000 C.3     1  LIG1        0.0000
      9 N9          1.8499    1.8499    1.8499 N.3     1  LIG1        0.0000
     10 C10         3.2564    1.7141    1.4432 C.3     1  LIG1        0.0000
     11 C11         4.1431    2.6167    2.2861 C.3     1  LIG1        0.0000
     12 C12         3.9882    2.2781    3.7601 C.3     1  LIG1        0.0000
     13 C13         4.8574    3.1908    4.6143 C.2     1  LIG1        0.0000
     14 O14         5.5363    4.0323    4.0938 O.2     1  LIG1        0.0000
     15 N15         4.8643    3.0514    5.9772 N.am    1  LIG1        0.0000
     16 C16         5.7035    3.9326    6.8019 C.3     1  LIG1        0.0000
     17 C17         6.6971    3.0944    7.5896 C.3     1  LIG1        0.0000
     18 C18         4.8243    4.7139    7.7647 C.3     1  LIG1        0.0000
     19 C19         5.6920    5.6251    8.6175 C.3     1  LIG1        0.0000
     20 C20         3.8306    5.5522    6.9771 C.3     1  LIG1        0.0000
     21 C21         2.5249    2.4413    4.1386 C.3     1  LIG1        0.0000
     22 C22         1.6581    1.5394    3.2744 C.3     1  LIG1        0.0000
     23 N23        -1.1219    1.8609    2.0018 N.am    1  LIG1        0.0000
     24 C24        -2.3648    1.7088    2.6307 C.2     1  LIG1        0.0000
     25 O25        -3.0547    2.6792    2.8932 O.2     1  LIG1        0.0000
     26 N26        -2.8417    0.4354    2.9753 N.am    1  LIG1        0.0000
     27 C27        -2.0442   -0.7686    2.7003 C.3     1  LIG1        0.0000
     28 C28        -2.8501   -1.8222    1.9581 C.3     1  LIG1        0.0000
     29 C29        -3.5637   -1.4654    0.8193 C.3     1  LIG1        0.0000
     30 C30        -4.3039   -2.4230    0.1336 C.3     1  LIG1        0.0000
     31 C31        -4.3194   -3.7325    0.6028 C.3     1  LIG1        0.0000
     32 Cl32       -5.2645   -4.9633   -0.2687 Cl      1  LIG1        0.0000
     33 C33        -3.6095   -4.0987    1.7415 C.3     1  LIG1        0.0000
     34 C34        -2.8714   -3.1335    2.4202 C.3     1  LIG1        0.0000
     35 H           6.1990    4.5695    6.2113 H       1  LIG1        0.0000
     36 H          -1.8136   -1.1638    3.5895 H       1  LIG1        0.0000
     37 H           1.4968   -4.3654   -1.4328 H       1  LIG1        0.0000
     38 H          -0.0546   -3.8568   -1.4690 H       1  LIG1        0.0000
     39 H           1.1518   -2.8260   -1.8548 H       1  LIG1        0.0000
     40 H           0.7279   -3.9314    0.7787 H       1  LIG1        0.0000
     41 H           1.9343   -2.9006    0.3930 H       1  LIG1        0.0000
     42 H           1.4601    0.1276    0.8350 H       1  LIG1        0.0000
     43 H           0.8350    1.4601    0.1276 H       1  LIG1        0.0000
     44 H           3.3469    1.9695    0.4806 H       1  LIG1        0.0000
     45 H           3.5438    0.7640    1.5644 H       1  LIG1        0.0000
     46 H           5.0973    2.4876    2.0162 H       1  LIG1        0.0000
     47 H           3.8805    3.5700    2.1370 H       1  LIG1        0.0000
     48 H           4.2625    1.3282    3.9098 H       1  LIG1        0.0000
     49 H           4.2985    2.3502    6.4109 H       1  LIG1        0.0000
     50 H           7.2680    3.6939    8.1506 H       1  LIG1        0.0000
     51 H           6.2016    2.4575    8.1801 H       1  LIG1        0.0000
     52 H           7.2755    2.5804    6.9561 H       1  LIG1        0.0000
     53 H           4.3288    4.0770    8.3553 H       1  LIG1        0.0000
     54 H           5.1136    6.1391    9.2510 H       1  LIG1        0.0000
     55 H           6.3457    5.0737    9.1357 H       1  LIG1        0.0000
     56 H           6.1875    6.2620    8.0269 H       1  LIG1        0.0000
     57 H           3.2522    6.0662    7.6105 H       1  LIG1        0.0000
     58 H           4.3261    6.1891    6.3865 H       1  LIG1        0.0000
     59 H           3.2598    4.9527    6.4161 H       1  LIG1        0.0000
     60 H           2.2518    3.3934    4.0009 H       1  LIG1        0.0000
     61 H           2.4025    2.1952    5.1001 H       1  LIG1        0.0000
     62 H           1.9089    0.5856    3.4398 H       1  LIG1        0.0000
     63 H           0.6974    1.6780    3.5148 H       1  LIG1        0.0000
     64 H          -0.7980    2.7769    1.7653 H       1  LIG1        0.0000
     65 H          -3.7359    0.3454    3.4138 H       1  LIG1        0.0000
     66 H          -3.5448   -0.5203    0.4931 H       1  LIG1        0.0000
     67 H          -4.8186   -2.1731   -0.6865 H       1  LIG1        0.0000
     68 H          -3.6293   -5.0435    2.0684 H       1  LIG1        0.0000
     69 H          -2.3563   -3.3831    3.2403 H       1  LIG1        0.0000
@<TRIPOS>BOND
     1     1     2    1
     2     2     3    1
     3     3     4    1
     4     4     5    2
     5     4     6    1
     6     6     7    2
     7     7     8    1
     8     8     9    1
     9     9    10    1
    10    10    11    1
    11    11    12    1
    12    12    13    1
    13    13    14    2
    14    13    15   am
    15    15    16    1
    16    16    17    1
    17    16    18    1
    18    18    19    1
    19    18    20    1
    20    12    21    1
    21    21    22    1
    22    22     9    1
    23     7    23    1
    24    23    24   am
    25    24    25    2
    26    24    26   am
    27    26    27    1
    28    27     6    1
    29    27    28    1
    30    28    29   ar
    31    29    30   ar
    32    30    31   ar
    33    31    32    1
    34    31    33   ar
    35    33    34   ar
    36    34    28   ar
    37    16    35    1
    38    27    36    1
    39     1    37    1
    40     1    38    1
    41     1    39    1
    42     2    40    1
    43     2    41    1
    44     8    42    1
    45     8    43    1
    46    10    44    1
    47    10    45    1
    48    11    46    1
    49    11    47    1
    50    12    48    1
    51    15    49    1
    52    17    50    1
    53    17    51    1
    54    17    52    1
    55    18    53    1
    56    19    54    1
    57    19    55    1
    58    19    56    1
    59    20    57    1
    60    20    58    1
    61    20    59    1
    62    21    60    1
    63    21    61    1
    64    22    62    1
    65    22    63    1
    66    23    64    1
    67    26    65    1
    68    29    66    1
    69    30    67    1
    70    33    68    1
    71    34    69    1
