@<TRIPOS>MOLECULE
*****
 69 71 0 0 0
SMALL
USER_CHARGES

@<TRIPOS>ATOM
      1 C1         -0.8519    5.0982   -1.4478 C.3     1  LIG1        0.0000
      2 C2         -1.1937    3.6190   -1.5202 C.3     1  LIG1        0.0000
      3 O3         -1.1809    3.0656   -0.2125 O.3     1  LIG1        0.0000
      4 C4         -1.4616    1.7882   -0.1379 C.2     1  LIG1        0.0000
      5 O5         -1.7069    1.1685   -1.1358 O.2     1  LIG1        0.0000
      6 C6         -1.4761    1.1232    1.1506 C.2     1  LIG1        0.0000
      7 C7         -0.3274    0.7489    1.7000 C.2     1  LIG1        0.0000
      8 C8          1.0000    1.0000    1.0000 C.3     1  LIG1        0.0000
      9 N9          1.8508    1.8508    1.8508 N.3     1  LIG1        0.0000
     10 C10         2.9012    2.4947    1.0473 C.3     1  LIG1        0.0000
     11 C11         3.8107    3.3431    1.9222 C.3     1  LIG1        0.0000
     12 C12         2.9833    4.3956    2.6442 C.3     1  LIG1        0.0000
     13 C13         3.8775    5.2387    3.5434 C.2     1  LIG1        0.0000
     14 O14         5.0554    5.0157    3.5972 O.2     1  LIG1        0.0000
     15 N15         3.3373    6.2516    4.2911 N.am    1  LIG1        0.0000
     16 C16         4.2005    7.0654    5.1591 C.3     1  LIG1        0.0000
     17 C17         3.7361    6.9356    6.6006 C.3     1  LIG1        0.0000
     18 C18         4.1215    8.5216    4.7305 C.3     1  LIG1        0.0000
     19 C19         5.0141    9.3630    5.6281 C.3     1  LIG1        0.0000
     20 C20         4.5859    8.6513    3.2890 C.3     1  LIG1        0.0000
     21 C21         1.9216    3.6941    3.4766 C.3     1  LIG1        0.0000
     22 C22         1.0409    2.8378    2.5803 C.3     1  LIG1        0.0000
     23 N23        -0.2925    0.1209    2.9503 N.am    1  LIG1        0.0000
     24 C24        -1.4722   -0.1292    3.6640 C.2     1  LIG1        0.0000
     25 O25        -1.4391   -0.6771    4.7527 O.2     1  LIG1        0.0000
     26 N26        -2.7187    0.2429    3.1394 N.am    1  LIG1        0.0000
     27 C27        -2.8205    0.8892    1.8229 C.3     1  LIG1        0.0000
     28 C28        -3.6442    2.1653    1.8827 C.3     1  LIG1        0.0000
     29 C29        -4.5286    2.4614    0.8513 C.3     1  LIG1        0.0000
     30 C30        -5.2865    3.6269    0.8978 C.3     1  LIG1        0.0000
     31 C31        -5.1455    4.4850    1.9836 C.3     1  LIG1        0.0000
     32 Cl32       -6.1114    5.9784    2.0499 Cl      1  LIG1        0.0000
     33 C33        -4.2629    4.1978    3.0195 C.3     1  LIG1        0.0000
     34 C34        -3.5094    3.0289    2.9642 C.3     1  LIG1        0.0000
     35 H           5.1452    6.7463    5.0833 H       1  LIG1        0.0000
     36 H          -3.3237    0.2556    1.2353 H       1  LIG1        0.0000
     37 H          -0.8609    5.4879   -2.3687 H       1  LIG1        0.0000
     38 H          -1.5271    5.5690   -0.8800 H       1  LIG1        0.0000
     39 H           0.0574    5.2110   -1.0470 H       1  LIG1        0.0000
     40 H          -2.1030    3.5062   -1.9209 H       1  LIG1        0.0000
     41 H          -0.5185    3.1482   -2.0880 H       1  LIG1        0.0000
     42 H           1.4601    0.1276    0.8350 H       1  LIG1        0.0000
     43 H           0.8350    1.4601    0.1276 H       1  LIG1        0.0000
     44 H           2.4737    3.0782    0.3568 H       1  LIG1        0.0000
     45 H           3.4468    1.7887    0.5957 H       1  LIG1        0.0000
     46 H           4.2665    2.7591    2.5939 H       1  LIG1        0.0000
     47 H           4.4973    3.7931    1.3512 H       1  LIG1        0.0000
     48 H           2.5390    4.9867    1.9710 H       1  LIG1        0.0000
     49 H           2.3557    6.4373    4.2464 H       1  LIG1        0.0000
     50 H           4.3233    7.4892    7.1911 H       1  LIG1        0.0000
     51 H           2.7914    7.2547    6.6765 H       1  LIG1        0.0000
     52 H           3.7881    5.9776    6.8826 H       1  LIG1        0.0000
     53 H           3.1768    8.8406    4.8064 H       1  LIG1        0.0000
     54 H           4.9621   10.3211    5.3461 H       1  LIG1        0.0000
     55 H           4.7086    9.2777    6.5764 H       1  LIG1        0.0000
     56 H           5.9588    9.0440    5.5522 H       1  LIG1        0.0000
     57 H           4.5339    9.6093    3.0070 H       1  LIG1        0.0000
     58 H           5.5306    8.3323    3.2131 H       1  LIG1        0.0000
     59 H           3.9987    8.0977    2.6985 H       1  LIG1        0.0000
     60 H           1.3577    4.3783    3.9391 H       1  LIG1        0.0000
     61 H           2.3658    3.1124    4.1580 H       1  LIG1        0.0000
     62 H           0.3667    2.3589    3.1426 H       1  LIG1        0.0000
     63 H           0.5695    3.4263    1.9235 H       1  LIG1        0.0000
     64 H           0.5868   -0.1531    3.3399 H       1  LIG1        0.0000
     65 H          -3.5491    0.0661    3.6678 H       1  LIG1        0.0000
     66 H          -4.6197    1.8363    0.0761 H       1  LIG1        0.0000
     67 H          -5.9249    3.8452    0.1597 H       1  LIG1        0.0000
     68 H          -4.1708    4.8234    3.7942 H       1  LIG1        0.0000
     69 H          -2.8711    2.8102    3.7023 H       1  LIG1        0.0000
@<TRIPOS>BOND
     1     1     2    1
     2     2     3    1
     3     3     4    1
     4     4     5    2
     5     4     6    1
     6     6     7    2
     7     7     8    1
     8     8     9    1
     9     9    10    1
    10    10    11    1
    11    11    12    1
    12    12    13    1
    13    13    14    2
    14    13    15   am
    15    15    16    1
    16    16    17    1
    17    16    18    1
    18    18    19    1
    19    18    20    1
    20    12    21    1
    21    21    22    1
    22    22     9    1
    23     7    23    1
    24    23    24   am
    25    24    25    2
    26    24    26   am
    27    26    27    1
    28    27     6    1
    29    27    28    1
    30    28    29   ar
    31    29    30   ar
    32    30    31   ar
    33    31    32    1
    34    31    33   ar
    35    33    34   ar
    36    34    28   ar
    37    16    35    1
    38    27    36    1
    39     1    37    1
    40     1    38    1
    41     1    39    1
    42     2    40    1
    43     2    41    1
    44     8    42    1
    45     8    43    1
    46    10    44    1
    47    10    45    1
    48    11    46    1
    49    11    47    1
    50    12    48    1
    51    15    49    1
    52    17    50    1
    53    17    51    1
    54    17    52    1
    55    18    53    1
    56    19    54    1
    57    19    55    1
    58    19    56    1
    59    20    57    1
    60    20    58    1
    61    20    59    1
    62    21    60    1
    63    21    61    1
    64    22    62    1
    65    22    63    1
    66    23    64    1
    67    26    65    1
    68    29    66    1
    69    30    67    1
    70    33    68    1
    71    34    69    1
