@<TRIPOS>MOLECULE
*****
 69 71 0 0 0
SMALL
USER_CHARGES

@<TRIPOS>ATOM
      1 C1          2.3595   -2.6556   -0.2328 C.3     1  LIG1        0.0000
      2 C2          0.9921   -3.1673    0.1901 C.3     1  LIG1        0.0000
      3 O3          0.1271   -2.0664    0.4267 O.3     1  LIG1        0.0000
      4 C4          0.1244   -1.6045    1.6526 C.2     1  LIG1        0.0000
      5 O5          0.8236   -2.1109    2.4861 O.2     1  LIG1        0.0000
      6 C6         -0.7233   -0.4813    2.0023 C.2     1  LIG1        0.0000
      7 C7         -0.3274    0.7489    1.7000 C.2     1  LIG1        0.0000
      8 C8          1.0000    1.0000    1.0000 C.3     1  LIG1        0.0000
      9 N9          1.8488    1.8488    1.8488 N.3     1  LIG1        0.0000
     10 C10         2.3031    1.1048    3.0340 C.3     1  LIG1        0.0000
     11 C11         3.2373    1.9340    3.9030 C.3     1  LIG1        0.0000
     12 C12         3.4284    3.3374    3.3461 C.3     1  LIG1        0.0000
     13 C13         4.4127    4.1372    4.1846 C.2     1  LIG1        0.0000
     14 O14         5.4171    4.5644    3.6859 O.2     1  LIG1        0.0000
     15 N15         4.1529    4.3700    5.5094 N.am    1  LIG1        0.0000
     16 C16         5.1046    5.1433    6.3201 C.3     1  LIG1        0.0000
     17 C17         5.6026    4.2859    7.4721 C.3     1  LIG1        0.0000
     18 C18         4.4132    6.3799    6.8709 C.3     1  LIG1        0.0000
     19 C19         5.3973    7.1795    7.7092 C.3     1  LIG1        0.0000
     20 C20         3.9153    7.2374    5.7188 C.3     1  LIG1        0.0000
     21 C21         3.9231    3.2143    1.9125 C.3     1  LIG1        0.0000
     22 C22         2.9819    2.3689    1.0681 C.3     1  LIG1        0.0000
     23 N23        -1.1219    1.8609    2.0018 N.am    1  LIG1        0.0000
     24 C24        -2.3648    1.7088    2.6307 C.2     1  LIG1        0.0000
     25 O25        -3.0547    2.6792    2.8932 O.2     1  LIG1        0.0000
     26 N26        -2.8417    0.4354    2.9753 N.am    1  LIG1        0.0000
     27 C27        -2.0442   -0.7686    2.7003 C.3     1  LIG1        0.0000
     28 C28        -2.8501   -1.8222    1.9581 C.3     1  LIG1        0.0000
     29 C29        -2.7031   -3.1632    2.2950 C.3     1  LIG1        0.0000
     30 C30        -3.4367   -4.1343    1.6212 C.3     1  LIG1        0.0000
     31 C31        -4.3118   -3.7450    0.6123 C.3     1  LIG1        0.0000
     32 Cl32       -5.2534   -4.9816   -0.2548 Cl      1  LIG1        0.0000
     33 C33        -4.4648   -2.4062    0.2676 C.3     1  LIG1        0.0000
     34 C34        -3.7269   -1.4420    0.9480 C.3     1  LIG1        0.0000
     35 H           5.8792    5.4200    5.7514 H       1  LIG1        0.0000
     36 H          -1.8136   -1.1638    3.5895 H       1  LIG1        0.0000
     37 H           2.9686   -3.4310   -0.3994 H       1  LIG1        0.0000
     38 H           2.2693   -2.1166   -1.0703 H       1  LIG1        0.0000
     39 H           2.7401   -2.0826    0.4930 H       1  LIG1        0.0000
     40 H           0.6115   -3.7403   -0.5357 H       1  LIG1        0.0000
     41 H           1.0823   -3.7063    1.0276 H       1  LIG1        0.0000
     42 H           1.4601    0.1276    0.8350 H       1  LIG1        0.0000
     43 H           0.8350    1.4601    0.1276 H       1  LIG1        0.0000
     44 H           2.7863    0.2825    2.7336 H       1  LIG1        0.0000
     45 H           1.5048    0.8430    3.5765 H       1  LIG1        0.0000
     46 H           2.8504    2.0004    4.8227 H       1  LIG1        0.0000
     47 H           4.1269    1.4793    3.9476 H       1  LIG1        0.0000
     48 H           2.5463    3.8084    3.3451 H       1  LIG1        0.0000
     49 H           3.3159    4.0140    5.9249 H       1  LIG1        0.0000
     50 H           6.2500    4.8119    8.0237 H       1  LIG1        0.0000
     51 H           4.8280    4.0092    8.0409 H       1  LIG1        0.0000
     52 H           6.0574    3.4723    7.1098 H       1  LIG1        0.0000
     53 H           3.6386    6.1033    7.4396 H       1  LIG1        0.0000
     54 H           4.9424    7.9930    8.0715 H       1  LIG1        0.0000
     55 H           5.7249    6.6154    8.4671 H       1  LIG1        0.0000
     56 H           6.1719    7.4561    7.1404 H       1  LIG1        0.0000
     57 H           3.4604    8.0509    6.0812 H       1  LIG1        0.0000
     58 H           4.6899    7.5140    5.1501 H       1  LIG1        0.0000
     59 H           3.2679    6.7113    5.1673 H       1  LIG1        0.0000
     60 H           4.8276    2.7878    1.9165 H       1  LIG1        0.0000
     61 H           3.9872    4.1281    1.5114 H       1  LIG1        0.0000
     62 H           2.6270    2.9311    0.3212 H       1  LIG1        0.0000
     63 H           3.4937    1.5973    0.6905 H       1  LIG1        0.0000
     64 H          -0.7980    2.7769    1.7653 H       1  LIG1        0.0000
     65 H          -3.7359    0.3454    3.4138 H       1  LIG1        0.0000
     66 H          -2.0700   -3.4297    3.0217 H       1  LIG1        0.0000
     67 H          -3.3362   -5.1003    1.8592 H       1  LIG1        0.0000
     68 H          -5.0970   -2.1397   -0.4599 H       1  LIG1        0.0000
     69 H          -3.8273   -0.4758    0.7105 H       1  LIG1        0.0000
@<TRIPOS>BOND
     1     1     2    1
     2     2     3    1
     3     3     4    1
     4     4     5    2
     5     4     6    1
     6     6     7    2
     7     7     8    1
     8     8     9    1
     9     9    10    1
    10    10    11    1
    11    11    12    1
    12    12    13    1
    13    13    14    2
    14    13    15   am
    15    15    16    1
    16    16    17    1
    17    16    18    1
    18    18    19    1
    19    18    20    1
    20    12    21    1
    21    21    22    1
    22    22     9    1
    23     7    23    1
    24    23    24   am
    25    24    25    2
    26    24    26   am
    27    26    27    1
    28    27     6    1
    29    27    28    1
    30    28    29   ar
    31    29    30   ar
    32    30    31   ar
    33    31    32    1
    34    31    33   ar
    35    33    34   ar
    36    34    28   ar
    37    16    35    1
    38    27    36    1
    39     1    37    1
    40     1    38    1
    41     1    39    1
    42     2    40    1
    43     2    41    1
    44     8    42    1
    45     8    43    1
    46    10    44    1
    47    10    45    1
    48    11    46    1
    49    11    47    1
    50    12    48    1
    51    15    49    1
    52    17    50    1
    53    17    51    1
    54    17    52    1
    55    18    53    1
    56    19    54    1
    57    19    55    1
    58    19    56    1
    59    20    57    1
    60    20    58    1
    61    20    59    1
    62    21    60    1
    63    21    61    1
    64    22    62    1
    65    22    63    1
    66    23    64    1
    67    26    65    1
    68    29    66    1
    69    30    67    1
    70    33    68    1
    71    34    69    1
