@<TRIPOS>MOLECULE
*****
 69 71 0 0 0
SMALL
USER_CHARGES

@<TRIPOS>ATOM
      1 C1          3.0654   -3.2568    2.9428 C.3     1  LIG1        0.0000
      2 C2          1.9159   -3.0260    1.9754 C.3     1  LIG1        0.0000
      3 O3          1.1514   -1.9096    2.4064 O.3     1  LIG1        0.0000
      4 C4          0.1244   -1.6045    1.6526 C.2     1  LIG1        0.0000
      5 O5         -0.1147   -2.2544    0.6726 O.2     1  LIG1        0.0000
      6 C6         -0.7233   -0.4813    2.0023 C.2     1  LIG1        0.0000
      7 C7         -0.3274    0.7489    1.7000 C.2     1  LIG1        0.0000
      8 C8          1.0000    1.0000    1.0000 C.3     1  LIG1        0.0000
      9 N9          1.8499    1.8499    1.8499 N.3     1  LIG1        0.0000
     10 C10         2.8942    2.4861    1.0333 C.3     1  LIG1        0.0000
     11 C11         3.7565    3.3991    1.8902 C.3     1  LIG1        0.0000
     12 C12         4.3870    2.6117    3.0277 C.3     1  LIG1        0.0000
     13 C13         5.2367    3.5220    3.9038 C.2     1  LIG1        0.0000
     14 O14         5.3294    4.6897    3.6433 O.2     1  LIG1        0.0000
     15 N15         5.8955    3.0080    4.9895 N.am    1  LIG1        0.0000
     16 C16         6.7158    3.8868    5.8353 C.3     1  LIG1        0.0000
     17 C17         8.1540    3.3947    5.8324 C.3     1  LIG1        0.0000
     18 C18         6.1772    3.8692    7.2566 C.3     1  LIG1        0.0000
     19 C19         7.0255    4.7780    8.1312 C.3     1  LIG1        0.0000
     20 C20         4.7391    4.3613    7.2595 C.3     1  LIG1        0.0000
     21 C21         3.2741    1.9813    3.8494 C.3     1  LIG1        0.0000
     22 C22         2.4188    1.0842    2.9690 C.3     1  LIG1        0.0000
     23 N23        -1.1219    1.8609    2.0018 N.am    1  LIG1        0.0000
     24 C24        -2.3648    1.7088    2.6307 C.2     1  LIG1        0.0000
     25 O25        -3.0547    2.6792    2.8932 O.2     1  LIG1        0.0000
     26 N26        -2.8417    0.4354    2.9753 N.am    1  LIG1        0.0000
     27 C27        -2.0442   -0.7686    2.7003 C.3     1  LIG1        0.0000
     28 C28        -2.8501   -1.8222    1.9581 C.3     1  LIG1        0.0000
     29 C29        -2.7031   -3.1632    2.2950 C.3     1  LIG1        0.0000
     30 C30        -3.4367   -4.1343    1.6212 C.3     1  LIG1        0.0000
     31 C31        -4.3118   -3.7450    0.6123 C.3     1  LIG1        0.0000
     32 Cl32       -5.2534   -4.9816   -0.2548 Cl      1  LIG1        0.0000
     33 C33        -4.4648   -2.4062    0.2676 C.3     1  LIG1        0.0000
     34 C34        -3.7269   -1.4420    0.9480 C.3     1  LIG1        0.0000
     35 H           6.6822    4.8201    5.4776 H       1  LIG1        0.0000
     36 H          -1.8136   -1.1638    3.5895 H       1  LIG1        0.0000
     37 H           3.6037   -4.0430    2.6392 H       1  LIG1        0.0000
     38 H           3.6475   -2.4442    2.9686 H       1  LIG1        0.0000
     39 H           2.7011   -3.4351    3.8568 H       1  LIG1        0.0000
     40 H           2.2801   -2.8477    1.0613 H       1  LIG1        0.0000
     41 H           1.3337   -3.8387    1.9496 H       1  LIG1        0.0000
     42 H           1.4601    0.1276    0.8350 H       1  LIG1        0.0000
     43 H           0.8350    1.4601    0.1276 H       1  LIG1        0.0000
     44 H           2.4634    3.0245    0.3091 H       1  LIG1        0.0000
     45 H           3.4697    1.7778    0.6247 H       1  LIG1        0.0000
     46 H           4.4785    3.7978    1.3247 H       1  LIG1        0.0000
     47 H           3.1885    4.1295    2.2694 H       1  LIG1        0.0000
     48 H           4.9643    1.8893    2.6470 H       1  LIG1        0.0000
     49 H           5.8183    2.0349    5.2065 H       1  LIG1        0.0000
     50 H           8.7120    3.9926    6.4078 H       1  LIG1        0.0000
     51 H           8.1877    2.4615    6.1901 H       1  LIG1        0.0000
     52 H           8.5084    3.4063    4.8974 H       1  LIG1        0.0000
     53 H           6.2109    2.9360    7.6143 H       1  LIG1        0.0000
     54 H           6.6711    4.7664    9.0662 H       1  LIG1        0.0000
     55 H           7.9716    4.4542    8.1293 H       1  LIG1        0.0000
     56 H           6.9918    5.7112    7.7735 H       1  LIG1        0.0000
     57 H           4.3847    4.3497    8.1945 H       1  LIG1        0.0000
     58 H           4.7054    5.2946    6.9018 H       1  LIG1        0.0000
     59 H           4.1810    3.7635    6.6841 H       1  LIG1        0.0000
     60 H           2.7027    2.7026    4.2407 H       1  LIG1        0.0000
     61 H           3.6748    1.4368    4.5862 H       1  LIG1        0.0000
     62 H           2.9843    0.3432    2.6067 H       1  LIG1        0.0000
     63 H           1.6752    0.6992    3.5157 H       1  LIG1        0.0000
     64 H          -0.7980    2.7769    1.7653 H       1  LIG1        0.0000
     65 H          -3.7359    0.3454    3.4138 H       1  LIG1        0.0000
     66 H          -2.0700   -3.4297    3.0217 H       1  LIG1        0.0000
     67 H          -3.3362   -5.1003    1.8592 H       1  LIG1        0.0000
     68 H          -5.0970   -2.1397   -0.4599 H       1  LIG1        0.0000
     69 H          -3.8273   -0.4758    0.7105 H       1  LIG1        0.0000
@<TRIPOS>BOND
     1     1     2    1
     2     2     3    1
     3     3     4    1
     4     4     5    2
     5     4     6    1
     6     6     7    2
     7     7     8    1
     8     8     9    1
     9     9    10    1
    10    10    11    1
    11    11    12    1
    12    12    13    1
    13    13    14    2
    14    13    15   am
    15    15    16    1
    16    16    17    1
    17    16    18    1
    18    18    19    1
    19    18    20    1
    20    12    21    1
    21    21    22    1
    22    22     9    1
    23     7    23    1
    24    23    24   am
    25    24    25    2
    26    24    26   am
    27    26    27    1
    28    27     6    1
    29    27    28    1
    30    28    29   ar
    31    29    30   ar
    32    30    31   ar
    33    31    32    1
    34    31    33   ar
    35    33    34   ar
    36    34    28   ar
    37    16    35    1
    38    27    36    1
    39     1    37    1
    40     1    38    1
    41     1    39    1
    42     2    40    1
    43     2    41    1
    44     8    42    1
    45     8    43    1
    46    10    44    1
    47    10    45    1
    48    11    46    1
    49    11    47    1
    50    12    48    1
    51    15    49    1
    52    17    50    1
    53    17    51    1
    54    17    52    1
    55    18    53    1
    56    19    54    1
    57    19    55    1
    58    19    56    1
    59    20    57    1
    60    20    58    1
    61    20    59    1
    62    21    60    1
    63    21    61    1
    64    22    62    1
    65    22    63    1
    66    23    64    1
    67    26    65    1
    68    29    66    1
    69    30    67    1
    70    33    68    1
    71    34    69    1
