@<TRIPOS>MOLECULE
*****
 69 71 0 0 0
SMALL
USER_CHARGES

@<TRIPOS>ATOM
      1 C1          0.0921    2.2270   -2.7927 C.3     1  LIG1        0.0000
      2 C2         -1.3339    1.8333   -2.4435 C.3     1  LIG1        0.0000
      3 O3         -1.3363    1.0855   -1.2363 O.3     1  LIG1        0.0000
      4 C4         -1.4616    1.7882   -0.1379 C.2     1  LIG1        0.0000
      5 O5         -1.5645    2.9823   -0.1979 O.2     1  LIG1        0.0000
      6 C6         -1.4761    1.1232    1.1506 C.2     1  LIG1        0.0000
      7 C7         -0.3274    0.7489    1.7000 C.2     1  LIG1        0.0000
      8 C8          1.0000    1.0000    1.0000 C.3     1  LIG1        0.0000
      9 N9          1.8488    1.8488    1.8488 N.3     1  LIG1        0.0000
     10 C10         2.9004    2.4941    1.0474 C.3     1  LIG1        0.0000
     11 C11         3.7590    3.4315    1.8838 C.3     1  LIG1        0.0000
     12 C12         3.3374    3.4284    3.3462 C.3     1  LIG1        0.0000
     13 C13         4.1579    4.4149    4.1617 C.2     1  LIG1        0.0000
     14 O14         4.8209    4.0262    5.0832 O.2     1  LIG1        0.0000
     15 N15         4.1403    5.7475    3.8444 N.am    1  LIG1        0.0000
     16 C16         4.9336    6.7013    4.6329 C.3     1  LIG1        0.0000
     17 C17         4.0101    7.7357    5.2554 C.3     1  LIG1        0.0000
     18 C18         5.9363    7.3972    3.7269 C.3     1  LIG1        0.0000
     19 C19         6.7566    8.3835    4.5422 C.3     1  LIG1        0.0000
     20 C20         6.8598    6.3628    3.1044 C.3     1  LIG1        0.0000
     21 C21         1.8582    3.7788    3.4129 C.3     1  LIG1        0.0000
     22 C22         1.0230    2.8387    2.5573 C.3     1  LIG1        0.0000
     23 N23        -0.2925    0.1209    2.9503 N.am    1  LIG1        0.0000
     24 C24        -1.4722   -0.1292    3.6640 C.2     1  LIG1        0.0000
     25 O25        -1.4391   -0.6771    4.7527 O.2     1  LIG1        0.0000
     26 N26        -2.7187    0.2429    3.1394 N.am    1  LIG1        0.0000
     27 C27        -2.8205    0.8892    1.8229 C.3     1  LIG1        0.0000
     28 C28        -3.6442    2.1653    1.8827 C.3     1  LIG1        0.0000
     29 C29        -3.3600    3.1219    2.8511 C.3     1  LIG1        0.0000
     30 C30        -4.1085    4.2927    2.9133 C.3     1  LIG1        0.0000
     31 C31        -5.1384    4.4889    1.9990 C.3     1  LIG1        0.0000
     32 Cl32       -6.1009    5.9842    2.0725 Cl      1  LIG1        0.0000
     33 C33        -5.4307    3.5374    1.0274 C.3     1  LIG1        0.0000
     34 C34        -4.6758    2.3695    0.9729 C.3     1  LIG1        0.0000
     35 H           5.4213    6.2118    5.3558 H       1  LIG1        0.0000
     36 H          -3.3237    0.2556    1.2353 H       1  LIG1        0.0000
     37 H           0.0938    2.7536   -3.6428 H       1  LIG1        0.0000
     38 H           0.4744    2.7835   -2.0551 H       1  LIG1        0.0000
     39 H           0.6462    1.4029   -2.9101 H       1  LIG1        0.0000
     40 H          -1.8880    2.6575   -2.3261 H       1  LIG1        0.0000
     41 H          -1.7163    1.2768   -3.1811 H       1  LIG1        0.0000
     42 H           1.4601    0.1276    0.8350 H       1  LIG1        0.0000
     43 H           0.8350    1.4601    0.1276 H       1  LIG1        0.0000
     44 H           2.4704    3.0190    0.3129 H       1  LIG1        0.0000
     45 H           3.4858    1.7860    0.6525 H       1  LIG1        0.0000
     46 H           4.7132    3.1391    1.8213 H       1  LIG1        0.0000
     47 H           3.6706    4.3600    1.5232 H       1  LIG1        0.0000
     48 H           3.4699    2.5103    3.7196 H       1  LIG1        0.0000
     49 H           3.5878    6.0714    3.0764 H       1  LIG1        0.0000
     50 H           4.5498    8.3846    5.7918 H       1  LIG1        0.0000
     51 H           3.5225    8.2252    4.5325 H       1  LIG1        0.0000
     52 H           3.3505    7.2779    5.8515 H       1  LIG1        0.0000
     53 H           5.4486    7.8867    3.0040 H       1  LIG1        0.0000
     54 H           7.4163    8.8413    3.9462 H       1  LIG1        0.0000
     55 H           6.1490    9.0640    4.9518 H       1  LIG1        0.0000
     56 H           7.2443    7.8939    5.2651 H       1  LIG1        0.0000
     57 H           7.5194    6.8206    2.5083 H       1  LIG1        0.0000
     58 H           7.3474    5.8733    3.8273 H       1  LIG1        0.0000
     59 H           6.3201    5.7140    2.5680 H       1  LIG1        0.0000
     60 H           1.7311    4.7152    3.0856 H       1  LIG1        0.0000
     61 H           1.5513    3.7130    4.3624 H       1  LIG1        0.0000
     62 H           0.3765    2.3552    3.1475 H       1  LIG1        0.0000
     63 H           0.5191    3.3790    1.8833 H       1  LIG1        0.0000
     64 H           0.5868   -0.1531    3.3399 H       1  LIG1        0.0000
     65 H          -3.5491    0.0661    3.6678 H       1  LIG1        0.0000
     66 H          -2.6173    2.9681    3.5029 H       1  LIG1        0.0000
     67 H          -3.9086    4.9850    3.6067 H       1  LIG1        0.0000
     68 H          -6.1741    3.6906    0.3763 H       1  LIG1        0.0000
     69 H          -4.8751    1.6772    0.2794 H       1  LIG1        0.0000
@<TRIPOS>BOND
     1     1     2    1
     2     2     3    1
     3     3     4    1
     4     4     5    2
     5     4     6    1
     6     6     7    2
     7     7     8    1
     8     8     9    1
     9     9    10    1
    10    10    11    1
    11    11    12    1
    12    12    13    1
    13    13    14    2
    14    13    15   am
    15    15    16    1
    16    16    17    1
    17    16    18    1
    18    18    19    1
    19    18    20    1
    20    12    21    1
    21    21    22    1
    22    22     9    1
    23     7    23    1
    24    23    24   am
    25    24    25    2
    26    24    26   am
    27    26    27    1
    28    27     6    1
    29    27    28    1
    30    28    29   ar
    31    29    30   ar
    32    30    31   ar
    33    31    32    1
    34    31    33   ar
    35    33    34   ar
    36    34    28   ar
    37    16    35    1
    38    27    36    1
    39     1    37    1
    40     1    38    1
    41     1    39    1
    42     2    40    1
    43     2    41    1
    44     8    42    1
    45     8    43    1
    46    10    44    1
    47    10    45    1
    48    11    46    1
    49    11    47    1
    50    12    48    1
    51    15    49    1
    52    17    50    1
    53    17    51    1
    54    17    52    1
    55    18    53    1
    56    19    54    1
    57    19    55    1
    58    19    56    1
    59    20    57    1
    60    20    58    1
    61    20    59    1
    62    21    60    1
    63    21    61    1
    64    22    62    1
    65    22    63    1
    66    23    64    1
    67    26    65    1
    68    29    66    1
    69    30    67    1
    70    33    68    1
    71    34    69    1
