@<TRIPOS>MOLECULE
*****
 69 71 0 0 0
SMALL
USER_CHARGES

@<TRIPOS>ATOM
      1 C1         -1.1823    0.8885   -3.6245 C.3     1  LIG1        0.0000
      2 C2         -1.3339    1.8333   -2.4435 C.3     1  LIG1        0.0000
      3 O3         -1.3363    1.0855   -1.2363 O.3     1  LIG1        0.0000
      4 C4         -1.4616    1.7882   -0.1379 C.2     1  LIG1        0.0000
      5 O5         -1.5645    2.9823   -0.1979 O.2     1  LIG1        0.0000
      6 C6         -1.4761    1.1232    1.1506 C.2     1  LIG1        0.0000
      7 C7         -0.3274    0.7489    1.7000 C.2     1  LIG1        0.0000
      8 C8          1.0000    1.0000    1.0000 C.3     1  LIG1        0.0000
      9 N9          1.8499    1.8499    1.8499 N.3     1  LIG1        0.0000
     10 C10         1.2991    3.2122    1.9023 C.3     1  LIG1        0.0000
     11 C11         2.1442    4.0928    2.8089 C.3     1  LIG1        0.0000
     12 C12         3.5823    4.1269    2.3171 C.3     1  LIG1        0.0000
     13 C13         4.4413    4.9904    3.2309 C.2     1  LIG1        0.0000
     14 O14         5.3840    4.5108    3.7977 O.2     1  LIG1        0.0000
     15 N15         4.1379    6.3149    3.4059 N.am    1  LIG1        0.0000
     16 C16         4.9672    7.1485    4.2881 C.3     1  LIG1        0.0000
     17 C17         4.1088    7.7074    5.4111 C.3     1  LIG1        0.0000
     18 C18         5.5640    8.2949    3.4880 C.3     1  LIG1        0.0000
     19 C19         6.4215    9.1569    4.4002 C.3     1  LIG1        0.0000
     20 C20         6.4223    7.7360    2.3649 C.3     1  LIG1        0.0000
     21 C21         4.1135    2.7028    2.2885 C.3     1  LIG1        0.0000
     22 C22         3.2455    1.8397    1.3868 C.3     1  LIG1        0.0000
     23 N23        -0.2925    0.1209    2.9503 N.am    1  LIG1        0.0000
     24 C24        -1.4722   -0.1292    3.6640 C.2     1  LIG1        0.0000
     25 O25        -1.4391   -0.6771    4.7527 O.2     1  LIG1        0.0000
     26 N26        -2.7187    0.2429    3.1394 N.am    1  LIG1        0.0000
     27 C27        -2.8205    0.8892    1.8229 C.3     1  LIG1        0.0000
     28 C28        -3.6442    2.1653    1.8827 C.3     1  LIG1        0.0000
     29 C29        -4.5286    2.4614    0.8513 C.3     1  LIG1        0.0000
     30 C30        -5.2865    3.6269    0.8978 C.3     1  LIG1        0.0000
     31 C31        -5.1455    4.4850    1.9836 C.3     1  LIG1        0.0000
     32 Cl32       -6.1114    5.9784    2.0499 Cl      1  LIG1        0.0000
     33 C33        -4.2629    4.1978    3.0195 C.3     1  LIG1        0.0000
     34 C34        -3.5094    3.0289    2.9642 C.3     1  LIG1        0.0000
     35 H           5.7034    6.5938    4.6757 H       1  LIG1        0.0000
     36 H          -3.3237    0.2556    1.2353 H       1  LIG1        0.0000
     37 H          -1.1806    1.4151   -4.4746 H       1  LIG1        0.0000
     38 H          -0.3213    0.3867   -3.5415 H       1  LIG1        0.0000
     39 H          -1.9453    0.2422   -3.6343 H       1  LIG1        0.0000
     40 H          -0.5709    2.4797   -2.4336 H       1  LIG1        0.0000
     41 H          -2.1949    2.3352   -2.5264 H       1  LIG1        0.0000
     42 H           1.4601    0.1276    0.8350 H       1  LIG1        0.0000
     43 H           0.8350    1.4601    0.1276 H       1  LIG1        0.0000
     44 H           0.3646    3.1761    2.2563 H       1  LIG1        0.0000
     45 H           1.2916    3.6000    0.9805 H       1  LIG1        0.0000
     46 H           1.7725    5.0212    2.8073 H       1  LIG1        0.0000
     47 H           2.1219    3.7265    3.7391 H       1  LIG1        0.0000
     48 H           3.6043    4.5047    1.3915 H       1  LIG1        0.0000
     49 H           3.3523    6.7145    2.9336 H       1  LIG1        0.0000
     50 H           4.6730    8.2745    6.0112 H       1  LIG1        0.0000
     51 H           3.3726    8.2621    5.0235 H       1  LIG1        0.0000
     52 H           3.7162    6.9532    5.9375 H       1  LIG1        0.0000
     53 H           4.8277    8.8496    3.1004 H       1  LIG1        0.0000
     54 H           6.8141    9.9111    3.8738 H       1  LIG1        0.0000
     55 H           5.8568    9.5245    5.1390 H       1  LIG1        0.0000
     56 H           7.1577    8.6021    4.7878 H       1  LIG1        0.0000
     57 H           6.8149    8.4902    1.8386 H       1  LIG1        0.0000
     58 H           7.1585    7.1813    2.7525 H       1  LIG1        0.0000
     59 H           5.8582    7.1689    1.7648 H       1  LIG1        0.0000
     60 H           4.1034    2.3273    3.2153 H       1  LIG1        0.0000
     61 H           5.0509    2.7064    1.9405 H       1  LIG1        0.0000
     62 H           3.2849    2.1961    0.4533 H       1  LIG1        0.0000
     63 H           3.5895    0.9008    1.3999 H       1  LIG1        0.0000
     64 H           0.5868   -0.1531    3.3399 H       1  LIG1        0.0000
     65 H          -3.5491    0.0661    3.6678 H       1  LIG1        0.0000
     66 H          -4.6197    1.8363    0.0761 H       1  LIG1        0.0000
     67 H          -5.9249    3.8452    0.1597 H       1  LIG1        0.0000
     68 H          -4.1708    4.8234    3.7942 H       1  LIG1        0.0000
     69 H          -2.8711    2.8102    3.7023 H       1  LIG1        0.0000
@<TRIPOS>BOND
     1     1     2    1
     2     2     3    1
     3     3     4    1
     4     4     5    2
     5     4     6    1
     6     6     7    2
     7     7     8    1
     8     8     9    1
     9     9    10    1
    10    10    11    1
    11    11    12    1
    12    12    13    1
    13    13    14    2
    14    13    15   am
    15    15    16    1
    16    16    17    1
    17    16    18    1
    18    18    19    1
    19    18    20    1
    20    12    21    1
    21    21    22    1
    22    22     9    1
    23     7    23    1
    24    23    24   am
    25    24    25    2
    26    24    26   am
    27    26    27    1
    28    27     6    1
    29    27    28    1
    30    28    29   ar
    31    29    30   ar
    32    30    31   ar
    33    31    32    1
    34    31    33   ar
    35    33    34   ar
    36    34    28   ar
    37    16    35    1
    38    27    36    1
    39     1    37    1
    40     1    38    1
    41     1    39    1
    42     2    40    1
    43     2    41    1
    44     8    42    1
    45     8    43    1
    46    10    44    1
    47    10    45    1
    48    11    46    1
    49    11    47    1
    50    12    48    1
    51    15    49    1
    52    17    50    1
    53    17    51    1
    54    17    52    1
    55    18    53    1
    56    19    54    1
    57    19    55    1
    58    19    56    1
    59    20    57    1
    60    20    58    1
    61    20    59    1
    62    21    60    1
    63    21    61    1
    64    22    62    1
    65    22    63    1
    66    23    64    1
    67    26    65    1
    68    29    66    1
    69    30    67    1
    70    33    68    1
    71    34    69    1
