@<TRIPOS>MOLECULE

  22   24
SMALL
USER_CHARGES
@<TRIPOS>ATOM
   1 C1           1.0000     1.0000     1.0000 C.3          1    LIG   0.0000
   2 C2           1.8772     1.8772     1.8772 C.2          1    LIG   0.0000
   3 N3           3.1832     1.9744     1.8584 N.2          1    LIG   0.0000
   4 C4           3.7483     2.8451     2.7650 C.ar         1    LIG   0.0000
   5 N5           5.0121     3.2065     3.0432 N.ar         1    LIG   0.0000
   6 C6           5.3169     4.1006     3.9988 C.ar         1    LIG   0.0000
   7 C7           4.3275     4.7115     4.7653 C.ar         1    LIG   0.0000
   8 C8           4.5910     5.6814     5.8097 C.2          1    LIG   0.0000
   9 C9           5.8570     6.1579     6.2131 C.2          1    LIG   0.0000
  10 C10          5.6141     7.0495     7.2112 C.2          1    LIG   0.0000
  11 O11          4.3163     7.1063     7.3974 O.2          1    LIG   0.0000
  12 C12          3.6624     6.3063     6.5875 C.2          1    LIG   0.0000
  13 N13          3.0527     4.3901     4.5327 N.ar         1    LIG   0.0000
  14 C14          2.8356     3.4951     3.5673 C.ar         1    LIG   0.0000
  15 S15          1.3095     2.9312     3.0840 S.3          1    LIG   0.0000
  16 H            1.5750     0.4756     0.3720 H            1    LIG   0.0000
  17 H            0.4756     0.3720     1.5750 H            1    LIG   0.0000
  18 H            0.3720     1.5750     0.4756 H            1    LIG   0.0000
  19 H            6.2756     4.3327     4.1632 H            1    LIG   0.0000
  20 H            6.7475     5.8946     5.8422 H            1    LIG   0.0000
  21 H            6.3035     7.5703     7.7147 H            1    LIG   0.0000
  22 H            2.6713     6.1795     6.5486 H            1    LIG   0.0000
@<TRIPOS>BOND
   1        1        2 1
   2        2        3 2
   3        3        4 1
   4        4        5 ar
   5        5        6 ar
   6        6        7 ar
   7        7        8 1
   8        8        9 1
   9        9       10 2
  10       10       11 1
  11       11       12 1
  12       12        8 2
  13        7       13 ar
  14       13       14 ar
  15       14        4 ar
  16       14       15 1
  17       15        2 1
  18        1       16 1
  19        1       17 1
  20        1       18 1
  21        6       19 1
  22        9       20 1
  23       10       21 1
  24       12       22 1

@<TRIPOS>MOLECULE

  22   24
SMALL
USER_CHARGES
@<TRIPOS>ATOM
   1 C1           1.0000     1.0000     1.0000 C.3          1    LIG   0.0000
   2 C2           1.8772     1.8772     1.8772 C.2          1    LIG   0.0000
   3 N3           3.1832     1.9744     1.8584 N.2          1    LIG   0.0000
   4 C4           3.7483     2.8451     2.7650 C.ar         1    LIG   0.0000
   5 N5           5.0121     3.2065     3.0432 N.ar         1    LIG   0.0000
   6 C6           5.3169     4.1006     3.9988 C.ar         1    LIG   0.0000
   7 C7           4.3275     4.7115     4.7653 C.ar         1    LIG   0.0000
   8 C8           4.5910     5.6814     5.8097 C.2          1    LIG   0.0000
   9 C9           5.6711     6.5887     5.8599 C.2          1    LIG   0.0000
  10 C10          5.5045     7.2967     7.0093 C.2          1    LIG   0.0000
  11 O11          4.4209     6.8556     7.6038 O.2          1    LIG   0.0000
  12 C12          3.8417     5.8899     6.9290 C.2          1    LIG   0.0000
  13 N13          3.0527     4.3901     4.5327 N.ar         1    LIG   0.0000
  14 C14          2.8356     3.4951     3.5673 C.ar         1    LIG   0.0000
  15 S15          1.3095     2.9312     3.0840 S.3          1    LIG   0.0000
  16 H            1.5750     0.4756     0.3720 H            1    LIG   0.0000
  17 H            0.4756     0.3720     1.5750 H            1    LIG   0.0000
  18 H            0.3720     1.5750     0.4756 H            1    LIG   0.0000
  19 H            6.2756     4.3327     4.1632 H            1    LIG   0.0000
  20 H            6.4063     6.6900     5.1896 H            1    LIG   0.0000
  21 H            6.1027     8.0253     7.3428 H            1    LIG   0.0000
  22 H            3.0089     5.4003     7.1871 H            1    LIG   0.0000
@<TRIPOS>BOND
   1        1        2 1
   2        2        3 2
   3        3        4 1
   4        4        5 ar
   5        5        6 ar
   6        6        7 ar
   7        7        8 1
   8        8        9 1
   9        9       10 2
  10       10       11 1
  11       11       12 1
  12       12        8 2
  13        7       13 ar
  14       13       14 ar
  15       14        4 ar
  16       14       15 1
  17       15        2 1
  18        1       16 1
  19        1       17 1
  20        1       18 1
  21        6       19 1
  22        9       20 1
  23       10       21 1
  24       12       22 1

@<TRIPOS>MOLECULE

  22   24
SMALL
USER_CHARGES
@<TRIPOS>ATOM
   1 C1           1.0000     1.0000     1.0000 C.3          1    LIG   0.0000
   2 C2           1.8772     1.8772     1.8772 C.2          1    LIG   0.0000
   3 N3           3.1832     1.9744     1.8584 N.2          1    LIG   0.0000
   4 C4           3.7483     2.8451     2.7650 C.ar         1    LIG   0.0000
   5 N5           5.0121     3.2065     3.0432 N.ar         1    LIG   0.0000
   6 C6           5.3169     4.1006     3.9988 C.ar         1    LIG   0.0000
   7 C7           4.3275     4.7115     4.7653 C.ar         1    LIG   0.0000
   8 C8           4.5910     5.6814     5.8097 C.2          1    LIG   0.0000
   9 C9           5.7445     5.7499     6.6204 C.2          1    LIG   0.0000
  10 C10          5.5524     6.8143     7.4452 C.2          1    LIG   0.0000
  11 O11          4.3851     7.3422     7.1609 O.2          1    LIG   0.0000
  12 C12          3.7715     6.7004     6.1940 C.2          1    LIG   0.0000
  13 N13          3.0527     4.3901     4.5327 N.ar         1    LIG   0.0000
  14 C14          2.8356     3.4951     3.5673 C.ar         1    LIG   0.0000
  15 S15          1.3095     2.9312     3.0840 S.3          1    LIG   0.0000
  16 H            1.5750     0.4756     0.3720 H            1    LIG   0.0000
  17 H            0.4756     0.3720     1.5750 H            1    LIG   0.0000
  18 H            0.3720     1.5750     0.4756 H            1    LIG   0.0000
  19 H            6.2756     4.3327     4.1632 H            1    LIG   0.0000
  20 H            6.5381     5.1421     6.5939 H            1    LIG   0.0000
  21 H            6.1890     7.1378     8.1452 H            1    LIG   0.0000
  22 H            2.8733     6.9179     5.8119 H            1    LIG   0.0000
@<TRIPOS>BOND
   1        1        2 1
   2        2        3 2
   3        3        4 1
   4        4        5 ar
   5        5        6 ar
   6        6        7 ar
   7        7        8 1
   8        8        9 1
   9        9       10 2
  10       10       11 1
  11       11       12 1
  12       12        8 2
  13        7       13 ar
  14       13       14 ar
  15       14        4 ar
  16       14       15 1
  17       15        2 1
  18        1       16 1
  19        1       17 1
  20        1       18 1
  21        6       19 1
  22        9       20 1
  23       10       21 1
  24       12       22 1

@<TRIPOS>MOLECULE

  22   24
SMALL
USER_CHARGES
@<TRIPOS>ATOM
   1 C1           1.0000     1.0000     1.0000 C.3          1    LIG   0.0000
   2 C2           1.8772     1.8772     1.8772 C.2          1    LIG   0.0000
   3 N3           3.1832     1.9744     1.8584 N.2          1    LIG   0.0000
   4 C4           3.7483     2.8451     2.7650 C.ar         1    LIG   0.0000
   5 N5           5.0121     3.2065     3.0432 N.ar         1    LIG   0.0000
   6 C6           5.3169     4.1006     3.9988 C.ar         1    LIG   0.0000
   7 C7           4.3275     4.7115     4.7653 C.ar         1    LIG   0.0000
   8 C8           4.5910     5.6814     5.8097 C.2          1    LIG   0.0000
   9 C9           5.4031     6.8309     5.7026 C.2          1    LIG   0.0000
  10 C10          5.3491     7.4350     6.9201 C.2          1    LIG   0.0000
  11 O11          4.5749     6.7140     7.6965 O.2          1    LIG   0.0000
  12 C12          4.1005     5.6558     7.0811 C.2          1    LIG   0.0000
  13 N13          3.0527     4.3901     4.5327 N.ar         1    LIG   0.0000
  14 C14          2.8356     3.4951     3.5673 C.ar         1    LIG   0.0000
  15 S15          1.3095     2.9312     3.0840 S.3          1    LIG   0.0000
  16 H            1.5750     0.4756     0.3720 H            1    LIG   0.0000
  17 H            0.4756     0.3720     1.5750 H            1    LIG   0.0000
  18 H            0.3720     1.5750     0.4756 H            1    LIG   0.0000
  19 H            6.2756     4.3327     4.1632 H            1    LIG   0.0000
  20 H            5.9124     7.1376     4.8985 H            1    LIG   0.0000
  21 H            5.8171     8.2801     7.1782 H            1    LIG   0.0000
  22 H            3.4945     4.9625     7.4711 H            1    LIG   0.0000
@<TRIPOS>BOND
   1        1        2 1
   2        2        3 2
   3        3        4 1
   4        4        5 ar
   5        5        6 ar
   6        6        7 ar
   7        7        8 1
   8        8        9 1
   9        9       10 2
  10       10       11 1
  11       11       12 1
  12       12        8 2
  13        7       13 ar
  14       13       14 ar
  15       14        4 ar
  16       14       15 1
  17       15        2 1
  18        1       16 1
  19        1       17 1
  20        1       18 1
  21        6       19 1
  22        9       20 1
  23       10       21 1
  24       12       22 1

@<TRIPOS>MOLECULE

  22   24
SMALL
USER_CHARGES
@<TRIPOS>ATOM
   1 C1           1.0000     1.0000     1.0000 C.3          1    LIG   0.0000
   2 C2           1.8772     1.8772     1.8772 C.2          1    LIG   0.0000
   3 N3           3.1832     1.9744     1.8584 N.2          1    LIG   0.0000
   4 C4           3.7483     2.8451     2.7650 C.ar         1    LIG   0.0000
   5 N5           5.0121     3.2065     3.0432 N.ar         1    LIG   0.0000
   6 C6           5.3169     4.1006     3.9988 C.ar         1    LIG   0.0000
   7 C7           4.3275     4.7115     4.7653 C.ar         1    LIG   0.0000
   8 C8           4.5910     5.6814     5.8097 C.2          1    LIG   0.0000
   9 C9           5.5155     5.5459     6.8677 C.2          1    LIG   0.0000
  10 C10          5.4225     6.6960     7.5878 C.2          1    LIG   0.0000
  11 O11          4.5200     7.4595     7.0180 O.2          1    LIG   0.0000
  12 C12          3.9929     6.8975     5.9550 C.2          1    LIG   0.0000
  13 N13          3.0527     4.3901     4.5327 N.ar         1    LIG   0.0000
  14 C14          2.8356     3.4951     3.5673 C.ar         1    LIG   0.0000
  15 S15          1.3095     2.9312     3.0840 S.3          1    LIG   0.0000
  16 H            1.5750     0.4756     0.3720 H            1    LIG   0.0000
  17 H            0.4756     0.3720     1.5750 H            1    LIG   0.0000
  18 H            0.3720     1.5750     0.4756 H            1    LIG   0.0000
  19 H            6.2756     4.3327     4.1632 H            1    LIG   0.0000
  20 H            6.1144     4.7661     7.0500 H            1    LIG   0.0000
  21 H            5.9493     6.9204     8.4076 H            1    LIG   0.0000
  22 H            3.2867     7.2876     5.3642 H            1    LIG   0.0000
@<TRIPOS>BOND
   1        1        2 1
   2        2        3 2
   3        3        4 1
   4        4        5 ar
   5        5        6 ar
   6        6        7 ar
   7        7        8 1
   8        8        9 1
   9        9       10 2
  10       10       11 1
  11       11       12 1
  12       12        8 2
  13        7       13 ar
  14       13       14 ar
  15       14        4 ar
  16       14       15 1
  17       15        2 1
  18        1       16 1
  19        1       17 1
  20        1       18 1
  21        6       19 1
  22        9       20 1
  23       10       21 1
  24       12       22 1

@<TRIPOS>MOLECULE

  22   24
SMALL
USER_CHARGES
@<TRIPOS>ATOM
   1 C1           1.0000     1.0000     1.0000 C.3          1    LIG   0.0000
   2 C2           1.8772     1.8772     1.8772 C.2          1    LIG   0.0000
   3 N3           3.1832     1.9744     1.8584 N.2          1    LIG   0.0000
   4 C4           3.7483     2.8451     2.7650 C.ar         1    LIG   0.0000
   5 N5           5.0121     3.2065     3.0432 N.ar         1    LIG   0.0000
   6 C6           5.3169     4.1006     3.9988 C.ar         1    LIG   0.0000
   7 C7           4.3275     4.7115     4.7653 C.ar         1    LIG   0.0000
   8 C8           4.5910     5.6814     5.8097 C.2          1    LIG   0.0000
   9 C9           3.6305     6.3287     6.6163 C.2          1    LIG   0.0000
  10 C10          4.3357     7.1389     7.4507 C.2          1    LIG   0.0000
  11 O11          5.6103     6.9968     7.1726 O.2          1    LIG   0.0000
  12 C12          5.8141     6.1402     6.1988 C.2          1    LIG   0.0000
  13 N13          3.0527     4.3901     4.5327 N.ar         1    LIG   0.0000
  14 C14          2.8356     3.4951     3.5673 C.ar         1    LIG   0.0000
  15 S15          1.3095     2.9312     3.0840 S.3          1    LIG   0.0000
  16 H            1.5750     0.4756     0.3720 H            1    LIG   0.0000
  17 H            0.4756     0.3720     1.5750 H            1    LIG   0.0000
  18 H            0.3720     1.5750     0.4756 H            1    LIG   0.0000
  19 H            6.2756     4.3327     4.1632 H            1    LIG   0.0000
  20 H            2.6375     6.2152     6.5815 H            1    LIG   0.0000
  21 H            3.9506     7.7378     8.1529 H            1    LIG   0.0000
  22 H            6.6987     5.8748     5.8153 H            1    LIG   0.0000
@<TRIPOS>BOND
   1        1        2 1
   2        2        3 2
   3        3        4 1
   4        4        5 ar
   5        5        6 ar
   6        6        7 ar
   7        7        8 1
   8        8        9 1
   9        9       10 2
  10       10       11 1
  11       11       12 1
  12       12        8 2
  13        7       13 ar
  14       13       14 ar
  15       14        4 ar
  16       14       15 1
  17       15        2 1
  18        1       16 1
  19        1       17 1
  20        1       18 1
  21        6       19 1
  22        9       20 1
  23       10       21 1
  24       12       22 1

@<TRIPOS>MOLECULE

  22   24
SMALL
USER_CHARGES
@<TRIPOS>ATOM
   1 C1           1.0000     1.0000     1.0000 C.3          1    LIG   0.0000
   2 C2           1.8772     1.8772     1.8772 C.2          1    LIG   0.0000
   3 N3           3.1832     1.9744     1.8584 N.2          1    LIG   0.0000
   4 C4           3.7483     2.8451     2.7650 C.ar         1    LIG   0.0000
   5 N5           5.0121     3.2065     3.0432 N.ar         1    LIG   0.0000
   6 C6           5.3169     4.1006     3.9988 C.ar         1    LIG   0.0000
   7 C7           4.3275     4.7115     4.7653 C.ar         1    LIG   0.0000
   8 C8           4.5910     5.6814     5.8097 C.2          1    LIG   0.0000
   9 C9           3.8163     5.8979     6.9695 C.2          1    LIG   0.0000
  10 C10          4.4453     6.8918     7.6526 C.2          1    LIG   0.0000
  11 O11          5.5057     7.2474     6.9662 O.2          1    LIG   0.0000
  12 C12          5.6349     6.5566     5.8573 C.2          1    LIG   0.0000
  13 N13          3.0527     4.3901     4.5327 N.ar         1    LIG   0.0000
  14 C14          2.8356     3.4951     3.5673 C.ar         1    LIG   0.0000
  15 S15          1.3095     2.9312     3.0840 S.3          1    LIG   0.0000
  16 H            1.5750     0.4756     0.3720 H            1    LIG   0.0000
  17 H            0.4756     0.3720     1.5750 H            1    LIG   0.0000
  18 H            0.3720     1.5750     0.4756 H            1    LIG   0.0000
  19 H            6.2756     4.3327     4.1632 H            1    LIG   0.0000
  20 H            2.9788     5.4198     7.2341 H            1    LIG   0.0000
  21 H            4.1514     7.2828     8.5247 H            1    LIG   0.0000
  22 H            6.3611     6.6540     5.1768 H            1    LIG   0.0000
@<TRIPOS>BOND
   1        1        2 1
   2        2        3 2
   3        3        4 1
   4        4        5 ar
   5        5        6 ar
   6        6        7 ar
   7        7        8 1
   8        8        9 1
   9        9       10 2
  10       10       11 1
  11       11       12 1
  12       12        8 2
  13        7       13 ar
  14       13       14 ar
  15       14        4 ar
  16       14       15 1
  17       15        2 1
  18        1       16 1
  19        1       17 1
  20        1       18 1
  21        6       19 1
  22        9       20 1
  23       10       21 1
  24       12       22 1

@<TRIPOS>MOLECULE

  22   24
SMALL
USER_CHARGES
@<TRIPOS>ATOM
   1 C1           1.0000     1.0000     1.0000 C.3          1    LIG   0.0000
   2 C2           1.8772     1.8772     1.8772 C.2          1    LIG   0.0000
   3 N3           3.1832     1.9744     1.8584 N.2          1    LIG   0.0000
   4 C4           3.7483     2.8451     2.7650 C.ar         1    LIG   0.0000
   5 N5           5.0121     3.2065     3.0432 N.ar         1    LIG   0.0000
   6 C6           5.3169     4.1006     3.9988 C.ar         1    LIG   0.0000
   7 C7           4.3275     4.7115     4.7653 C.ar         1    LIG   0.0000
   8 C8           4.5910     5.6814     5.8097 C.2          1    LIG   0.0000
   9 C9           3.7429     6.7367     6.2091 C.2          1    LIG   0.0000
  10 C10          4.3974     7.3741     7.2167 C.2          1    LIG   0.0000
  11 O11          5.5415     6.7608     7.4091 O.2          1    LIG   0.0000
  12 C12          5.7051     5.7461     6.5923 C.2          1    LIG   0.0000
  13 N13          3.0527     4.3901     4.5327 N.ar         1    LIG   0.0000
  14 C14          2.8356     3.4951     3.5673 C.ar         1    LIG   0.0000
  15 S15          1.3095     2.9312     3.0840 S.3          1    LIG   0.0000
  16 H            1.5750     0.4756     0.3720 H            1    LIG   0.0000
  17 H            0.4756     0.3720     1.5750 H            1    LIG   0.0000
  18 H            0.3720     1.5750     0.4756 H            1    LIG   0.0000
  19 H            6.2756     4.3327     4.1632 H            1    LIG   0.0000
  20 H            2.8469     6.9677     5.8299 H            1    LIG   0.0000
  21 H            4.0651     8.1703     7.7223 H            1    LIG   0.0000
  22 H            6.4967     5.1364     6.5520 H            1    LIG   0.0000
@<TRIPOS>BOND
   1        1        2 1
   2        2        3 2
   3        3        4 1
   4        4        5 ar
   5        5        6 ar
   6        6        7 ar
   7        7        8 1
   8        8        9 1
   9        9       10 2
  10       10       11 1
  11       11       12 1
  12       12        8 2
  13        7       13 ar
  14       13       14 ar
  15       14        4 ar
  16       14       15 1
  17       15        2 1
  18        1       16 1
  19        1       17 1
  20        1       18 1
  21        6       19 1
  22        9       20 1
  23       10       21 1
  24       12       22 1

@<TRIPOS>MOLECULE

  22   24
SMALL
USER_CHARGES
@<TRIPOS>ATOM
   1 C1           1.0000     1.0000     1.0000 C.3          1    LIG   0.0000
   2 C2           1.8772     1.8772     1.8772 C.2          1    LIG   0.0000
   3 N3           3.1832     1.9744     1.8584 N.2          1    LIG   0.0000
   4 C4           3.7483     2.8451     2.7650 C.ar         1    LIG   0.0000
   5 N5           5.0121     3.2065     3.0432 N.ar         1    LIG   0.0000
   6 C6           5.3169     4.1006     3.9988 C.ar         1    LIG   0.0000
   7 C7           4.3275     4.7115     4.7653 C.ar         1    LIG   0.0000
   8 C8           4.5910     5.6814     5.8097 C.2          1    LIG   0.0000
   9 C9           3.9381     5.7696     7.0580 C.2          1    LIG   0.0000
  10 C10          4.5161     6.8184     7.7029 C.2          1    LIG   0.0000
  11 O11          5.4359     7.3224     6.9142 O.2          1    LIG   0.0000
  12 C12          5.5173     6.6806     5.7718 C.2          1    LIG   0.0000
  13 N13          3.0527     4.3901     4.5327 N.ar         1    LIG   0.0000
  14 C14          2.8356     3.4951     3.5673 C.ar         1    LIG   0.0000
  15 S15          1.3095     2.9312     3.0840 S.3          1    LIG   0.0000
  16 H            1.5750     0.4756     0.3720 H            1    LIG   0.0000
  17 H            0.4756     0.3720     1.5750 H            1    LIG   0.0000
  18 H            0.3720     1.5750     0.4756 H            1    LIG   0.0000
  19 H            6.2756     4.3327     4.1632 H            1    LIG   0.0000
  20 H            3.2031     5.1828     7.3977 H            1    LIG   0.0000
  21 H            4.2813     7.1477     8.6174 H            1    LIG   0.0000
  22 H            6.1404     6.8859     5.0171 H            1    LIG   0.0000
@<TRIPOS>BOND
   1        1        2 1
   2        2        3 2
   3        3        4 1
   4        4        5 ar
   5        5        6 ar
   6        6        7 ar
   7        7        8 1
   8        8        9 1
   9        9       10 2
  10       10       11 1
  11       11       12 1
  12       12        8 2
  13        7       13 ar
  14       13       14 ar
  15       14        4 ar
  16       14       15 1
  17       15        2 1
  18        1       16 1
  19        1       17 1
  20        1       18 1
  21        6       19 1
  22        9       20 1
  23       10       21 1
  24       12       22 1

@<TRIPOS>MOLECULE

  22   24
SMALL
USER_CHARGES
@<TRIPOS>ATOM
   1 C1           1.0000     1.0000     1.0000 C.3          1    LIG   0.0000
   2 C2           1.8772     1.8772     1.8772 C.2          1    LIG   0.0000
   3 N3           3.1832     1.9744     1.8584 N.2          1    LIG   0.0000
   4 C4           3.7483     2.8451     2.7650 C.ar         1    LIG   0.0000
   5 N5           5.0121     3.2065     3.0432 N.ar         1    LIG   0.0000
   6 C6           5.3169     4.1006     3.9988 C.ar         1    LIG   0.0000
   7 C7           4.3275     4.7115     4.7653 C.ar         1    LIG   0.0000
   8 C8           4.5910     5.6814     5.8097 C.2          1    LIG   0.0000
   9 C9           3.8438     6.8479     6.0803 C.2          1    LIG   0.0000
  10 C10          4.4545     7.4385     7.1425 C.2          1    LIG   0.0000
  11 O11          5.4819     6.6968     7.4836 O.2          1    LIG   0.0000
  12 C12          5.6076     5.6387     6.7167 C.2          1    LIG   0.0000
  13 N13          3.0527     4.3901     4.5327 N.ar         1    LIG   0.0000
  14 C14          2.8356     3.4951     3.5673 C.ar         1    LIG   0.0000
  15 S15          1.3095     2.9312     3.0840 S.3          1    LIG   0.0000
  16 H            1.5750     0.4756     0.3720 H            1    LIG   0.0000
  17 H            0.4756     0.3720     1.5750 H            1    LIG   0.0000
  18 H            0.3720     1.5750     0.4756 H            1    LIG   0.0000
  19 H            6.2756     4.3327     4.1632 H            1    LIG   0.0000
  20 H            3.0336     7.1727     5.5924 H            1    LIG   0.0000
  21 H            4.1704     8.2887     7.5858 H            1    LIG   0.0000
  22 H            6.3147     4.9350     6.7851 H            1    LIG   0.0000
@<TRIPOS>BOND
   1        1        2 1
   2        2        3 2
   3        3        4 1
   4        4        5 ar
   5        5        6 ar
   6        6        7 ar
   7        7        8 1
   8        8        9 1
   9        9       10 2
  10       10       11 1
  11       11       12 1
  12       12        8 2
  13        7       13 ar
  14       13       14 ar
  15       14        4 ar
  16       14       15 1
  17       15        2 1
  18        1       16 1
  19        1       17 1
  20        1       18 1
  21        6       19 1
  22        9       20 1
  23       10       21 1
  24       12       22 1

