@<TRIPOS>MOLECULE
*****
 22 24 0 0 0
SMALL
USER_CHARGES

@<TRIPOS>ATOM
      1 C1          1.0000    1.0000    1.0000 C.3     1  LIG1        0.0000
      2 C2          1.8772    1.8772    1.8772 C.2     1  LIG1        0.0000
      3 N3          3.1832    1.9744    1.8584 N.2     1  LIG1        0.0000
      4 C4          3.7483    2.8451    2.7650 C.ar    1  LIG1        0.0000
      5 N5          5.0121    3.2065    3.0432 N.ar    1  LIG1        0.0000
      6 C6          5.3169    4.1006    3.9988 C.ar    1  LIG1        0.0000
      7 C7          4.3275    4.7115    4.7653 C.ar    1  LIG1        0.0000
      8 C8          4.5910    5.6814    5.8097 C.2     1  LIG1        0.0000
      9 C9          3.8438    6.8479    6.0803 C.2     1  LIG1        0.0000
     10 C10         4.4545    7.4385    7.1425 C.2     1  LIG1        0.0000
     11 O11         5.4819    6.6968    7.4836 O.2     1  LIG1        0.0000
     12 C12         5.6076    5.6387    6.7167 C.2     1  LIG1        0.0000
     13 N13         3.0527    4.3901    4.5327 N.ar    1  LIG1        0.0000
     14 C14         2.8356    3.4951    3.5673 C.ar    1  LIG1        0.0000
     15 S15         1.3095    2.9312    3.0840 S.3     1  LIG1        0.0000
     16 H           1.5750    0.4756    0.3720 H       1  LIG1        0.0000
     17 H           0.4756    0.3720    1.5750 H       1  LIG1        0.0000
     18 H           0.3720    1.5750    0.4756 H       1  LIG1        0.0000
     19 H           6.2756    4.3327    4.1632 H       1  LIG1        0.0000
     20 H           3.0336    7.1727    5.5924 H       1  LIG1        0.0000
     21 H           4.1704    8.2887    7.5858 H       1  LIG1        0.0000
     22 H           6.3147    4.9350    6.7851 H       1  LIG1        0.0000
@<TRIPOS>BOND
     1     1     2    1
     2     2     3    2
     3     3     4    1
     4     4     5   ar
     5     5     6   ar
     6     6     7   ar
     7     7     8    1
     8     8     9    1
     9     9    10    2
    10    10    11    1
    11    11    12    1
    12    12     8    2
    13     7    13   ar
    14    13    14   ar
    15    14     4   ar
    16    14    15    1
    17    15     2    1
    18     1    16    1
    19     1    17    1
    20     1    18    1
    21     6    19    1
    22     9    20    1
    23    10    21    1
    24    12    22    1
