@<TRIPOS>MOLECULE

  29   31
SMALL
USER_CHARGES
@<TRIPOS>ATOM
   1 C1           5.4954    -1.4011     0.1304 C.3          1    LIG   0.0000
   2 C2           4.7598    -0.1411     0.5826 C.ar         1    LIG   0.0000
   3 N3           3.4167    -0.0905     0.6033 N.ar         1    LIG   0.0000
   4 C4           2.7405     1.0000     1.0000 C.ar         1    LIG   0.0000
   5 S5           1.0000     1.0000     1.0000 S.3          1    LIG   0.0000
   6 C6           0.6204     2.6984     0.9997 C.ar         1    LIG   0.0000
   7 C7          -0.1197     3.2381     2.0468 C.ar         1    LIG   0.0000
   8 C8          -0.4247     4.5951     2.0471 C.ar         1    LIG   0.0000
   9 C9           0.0155     5.3958     0.9978 C.ar         1    LIG   0.0000
  10 O10         -0.2775     6.7137     0.9946 O.3          1    LIG   0.0000
  11 C11          0.7552     4.8524    -0.0476 C.ar         1    LIG   0.0000
  12 C12          1.0621     3.4958    -0.0505 C.ar         1    LIG   0.0000
  13 C13          3.4046     2.1506     1.4195 C.ar         1    LIG   0.0000
  14 C14          3.0744     3.4437     1.8947 C.2          1    LIG   0.0000
  15 C15          4.2301     4.1277     2.1352 C.2          1    LIG   0.0000
  16 N16          5.2743     3.3057     1.8277 N.pl3        1    LIG   0.0000
  17 C17          4.7817     2.1017     1.3946 C.ar         1    LIG   0.0000
  18 N18          5.4001     0.9754     0.9845 N.ar         1    LIG   0.0000
  19 H            6.2427     3.5428     1.9055 H            1    LIG   0.0000
  20 H            6.4822    -1.2481     0.1832 H            1    LIG   0.0000
  21 H            5.2442    -2.1651     0.7247 H            1    LIG   0.0000
  22 H            5.2412    -1.6150    -0.8129 H            1    LIG   0.0000
  23 H           -0.4310     2.6531     2.7957 H            1    LIG   0.0000
  24 H           -0.9561     4.9921     2.7954 H            1    LIG   0.0000
  25 H            0.0364     7.2938     0.2429 H            1    LIG   0.0000
  26 H            1.0662     5.4371    -0.7969 H            1    LIG   0.0000
  27 H            1.5939     3.0987    -0.7986 H            1    LIG   0.0000
  28 H            2.1486     3.7963     2.0311 H            1    LIG   0.0000
  29 H            4.2994     5.0652     2.4764 H            1    LIG   0.0000
@<TRIPOS>BOND
   1        1        2 1
   2        2        3 ar
   3        3        4 ar
   4        4        5 1
   5        5        6 1
   6        6        7 ar
   7        7        8 ar
   8        8        9 ar
   9        9       10 1
  10        9       11 ar
  11       11       12 ar
  12       12        6 ar
  13        4       13 ar
  14       13       14 1
  15       14       15 2
  16       15       16 1
  17       16       17 1
  18       17       13 ar
  19       17       18 ar
  20       18        2 ar
  21       16       19 1
  22        1       20 1
  23        1       21 1
  24        1       22 1
  25        7       23 1
  26        8       24 1
  27       10       25 1
  28       11       26 1
  29       12       27 1
  30       14       28 1
  31       15       29 1

@<TRIPOS>MOLECULE

  29   31
SMALL
USER_CHARGES
@<TRIPOS>ATOM
   1 C1           5.4954    -1.3984     1.8772 C.3          1    LIG   0.0000
   2 C2           4.7598    -0.1424     1.4137 C.ar         1    LIG   0.0000
   3 N3           3.4167    -0.0904     1.3971 N.ar         1    LIG   0.0000
   4 C4           2.7405     1.0000     1.0000 C.ar         1    LIG   0.0000
   5 S5           1.0000     1.0000     1.0000 S.3          1    LIG   0.0000
   6 C6           0.6204     2.6984     0.9997 C.ar         1    LIG   0.0000
   7 C7           1.0603     3.5018     2.0467 C.ar         1    LIG   0.0000
   8 C8           0.7565     4.8592     2.0482 C.ar         1    LIG   0.0000
   9 C9           0.0152     5.3958     1.0002 C.ar         1    LIG   0.0000
  10 O10         -0.2811     6.7129     0.9971 O.3          1    LIG   0.0000
  11 C11         -0.4231     4.5890    -0.0450 C.ar         1    LIG   0.0000
  12 C12         -0.1206     3.2314    -0.0495 C.ar         1    LIG   0.0000
  13 C13          3.4046     2.1511     0.5818 C.ar         1    LIG   0.0000
  14 C14          3.0744     3.4471     0.1146 C.2          1    LIG   0.0000
  15 C15          4.2301     4.1257    -0.1408 C.2          1    LIG   0.0000
  16 N16          5.2743     3.2983     0.1520 N.pl3        1    LIG   0.0000
  17 C17          4.7817     2.0976     0.5941 C.ar         1    LIG   0.0000
  18 N18          5.4001     0.9712     1.0040 N.ar         1    LIG   0.0000
  19 H            6.2427     3.5300     0.0592 H            1    LIG   0.0000
  20 H            6.4822    -1.2472     1.8193 H            1    LIG   0.0000
  21 H            5.2442    -1.6016     2.8236 H            1    LIG   0.0000
  22 H            5.2412    -2.1685     1.2922 H            1    LIG   0.0000
  23 H            1.5925     3.1054     2.7948 H            1    LIG   0.0000
  24 H            1.0685     5.4447     2.7964 H            1    LIG   0.0000
  25 H           -0.8136     7.1038     0.2463 H            1    LIG   0.0000
  26 H           -0.9556     4.9852    -0.7930 H            1    LIG   0.0000
  27 H           -0.4321     2.6458    -0.7979 H            1    LIG   0.0000
  28 H            2.1486     3.8049    -0.0076 H            1    LIG   0.0000
  29 H            4.2994     5.0631    -0.4821 H            1    LIG   0.0000
@<TRIPOS>BOND
   1        1        2 1
   2        2        3 ar
   3        3        4 ar
   4        4        5 1
   5        5        6 1
   6        6        7 ar
   7        7        8 ar
   8        8        9 ar
   9        9       10 1
  10        9       11 ar
  11       11       12 ar
  12       12        6 ar
  13        4       13 ar
  14       13       14 1
  15       14       15 2
  16       15       16 1
  17       16       17 1
  18       17       13 ar
  19       17       18 ar
  20       18        2 ar
  21       16       19 1
  22        1       20 1
  23        1       21 1
  24        1       22 1
  25        7       23 1
  26        8       24 1
  27       10       25 1
  28       11       26 1
  29       12       27 1
  30       14       28 1
  31       15       29 1

@<TRIPOS>MOLECULE

  29   31
SMALL
USER_CHARGES
@<TRIPOS>ATOM
   1 C1           5.4954     3.5537     0.9960 C.3          1    LIG   0.0000
   2 C2           4.7598     2.2150     1.0020 C.ar         1    LIG   0.0000
   3 N3           3.4167     2.1604     0.9998 N.ar         1    LIG   0.0000
   4 C4           2.7405     1.0000     1.0000 C.ar         1    LIG   0.0000
   5 S5           1.0000     1.0000     1.0000 S.3          1    LIG   0.0000
   6 C6           0.6204     2.6984     0.9997 C.ar         1    LIG   0.0000
   7 C7          -0.5516     3.1414     1.6042 C.ar         1    LIG   0.0000
   8 C8          -0.8567     4.4985     1.6036 C.ar         1    LIG   0.0000
   9 C9           0.0164     5.3960     0.9971 C.ar         1    LIG   0.0000
  10 O10         -0.2753     6.7142     0.9950 O.3          1    LIG   0.0000
  11 C11          1.1874     4.9491     0.3934 C.ar         1    LIG   0.0000
  12 C12          1.4954     3.5927     0.3927 C.ar         1    LIG   0.0000
  13 C13          3.4046    -0.2247     0.9993 C.ar         1    LIG   0.0000
  14 C14          3.0744    -1.6024     0.9951 C.2          1    LIG   0.0000
  15 C15          4.2301    -2.3274     1.0030 C.2          1    LIG   0.0000
  16 N16          5.2743    -1.4497     1.0108 N.pl3        1    LIG   0.0000
  17 C17          4.7817    -0.1702     1.0060 C.ar         1    LIG   0.0000
  18 N18          5.4001     1.0284     1.0061 N.ar         1    LIG   0.0000
  19 H            6.2427    -1.6992     1.0188 H            1    LIG   0.0000
  20 H            6.4822     3.3919     0.9987 H            1    LIG   0.0000
  21 H            5.2442     4.0684     0.1762 H            1    LIG   0.0000
  22 H            5.2412     4.0774     1.8091 H            1    LIG   0.0000
  23 H           -1.1719     2.4873     2.0371 H            1    LIG   0.0000
  24 H           -1.6968     4.8264     2.0357 H            1    LIG   0.0000
  25 H            0.3487     7.3637     0.5605 H            1    LIG   0.0000
  26 H            1.8076     5.6030    -0.0399 H            1    LIG   0.0000
  27 H            2.3357     3.2646    -0.0389 H            1    LIG   0.0000
  28 H            2.1486    -1.9804     0.9875 H            1    LIG   0.0000
  29 H            4.2994    -3.3250     1.0030 H            1    LIG   0.0000
@<TRIPOS>BOND
   1        1        2 1
   2        2        3 ar
   3        3        4 ar
   4        4        5 1
   5        5        6 1
   6        6        7 ar
   7        7        8 ar
   8        8        9 ar
   9        9       10 1
  10        9       11 ar
  11       11       12 ar
  12       12        6 ar
  13        4       13 ar
  14       13       14 1
  15       14       15 2
  16       15       16 1
  17       16       17 1
  18       17       13 ar
  19       17       18 ar
  20       18        2 ar
  21       16       19 1
  22        1       20 1
  23        1       21 1
  24        1       22 1
  25        7       23 1
  26        8       24 1
  27       10       25 1
  28       11       26 1
  29       12       27 1
  30       14       28 1
  31       15       29 1

@<TRIPOS>MOLECULE

  29   31
SMALL
USER_CHARGES
@<TRIPOS>ATOM
   1 C1           5.4954     3.2136     2.2734 C.3          1    LIG   0.0000
   2 C2           4.7598     2.0513     1.6092 C.ar         1    LIG   0.0000
   3 N3           3.4167     2.0051     1.5801 N.ar         1    LIG   0.0000
   4 C4           2.7405     1.0000     1.0000 C.ar         1    LIG   0.0000
   5 S5           1.0000     1.0000     1.0000 S.3          1    LIG   0.0000
   6 C6           0.6204     2.6984     0.9997 C.ar         1    LIG   0.0000
   7 C7           1.0603     3.5018     2.0467 C.ar         1    LIG   0.0000
   8 C8           0.7565     4.8592     2.0482 C.ar         1    LIG   0.0000
   9 C9           0.0152     5.3958     1.0002 C.ar         1    LIG   0.0000
  10 O10         -0.2811     6.7129     0.9971 O.3          1    LIG   0.0000
  11 C11         -0.4231     4.5890    -0.0450 C.ar         1    LIG   0.0000
  12 C12         -0.1206     3.2314    -0.0495 C.ar         1    LIG   0.0000
  13 C13          3.4046    -0.0603     0.3870 C.ar         1    LIG   0.0000
  14 C14          3.0744    -1.2512    -0.3055 C.2          1    LIG   0.0000
  15 C15          4.2301    -1.8831    -0.6611 C.2          1    LIG   0.0000
  16 N16          5.2743    -1.1269    -0.2155 N.pl3        1    LIG   0.0000
  17 C17          4.7817    -0.0165     0.4201 C.ar         1    LIG   0.0000
  18 N18          5.4001     1.0215     1.0195 N.ar         1    LIG   0.0000
  19 H            6.2427    -1.3470    -0.3333 H            1    LIG   0.0000
  20 H            6.4822     3.0721     2.1948 H            1    LIG   0.0000
  21 H            5.2442     4.0692     1.8208 H            1    LIG   0.0000
  22 H            5.2412     3.2605     3.2394 H            1    LIG   0.0000
  23 H            1.5925     3.1054     2.7948 H            1    LIG   0.0000
  24 H            1.0685     5.4447     2.7964 H            1    LIG   0.0000
  25 H           -0.8136     7.1038     0.2463 H            1    LIG   0.0000
  26 H           -0.9556     4.9852    -0.7930 H            1    LIG   0.0000
  27 H           -0.4321     2.6458    -0.7979 H            1    LIG   0.0000
  28 H            2.1486    -1.5748    -0.5010 H            1    LIG   0.0000
  29 H            4.2994    -2.7471    -1.1599 H            1    LIG   0.0000
@<TRIPOS>BOND
   1        1        2 1
   2        2        3 ar
   3        3        4 ar
   4        4        5 1
   5        5        6 1
   6        6        7 ar
   7        7        8 ar
   8        8        9 ar
   9        9       10 1
  10        9       11 ar
  11       11       12 ar
  12       12        6 ar
  13        4       13 ar
  14       13       14 1
  15       14       15 2
  16       15       16 1
  17       16       17 1
  18       17       13 ar
  19       17       18 ar
  20       18        2 ar
  21       16       19 1
  22        1       20 1
  23        1       21 1
  24        1       22 1
  25        7       23 1
  26        8       24 1
  27       10       25 1
  28       11       26 1
  29       12       27 1
  30       14       28 1
  31       15       29 1

@<TRIPOS>MOLECULE

  29   31
SMALL
USER_CHARGES
@<TRIPOS>ATOM
   1 C1           5.4954     1.0040     3.5537 C.3          1    LIG   0.0000
   2 C2           4.7598     0.9980     2.2150 C.ar         1    LIG   0.0000
   3 N3           3.4167     1.0002     2.1604 N.ar         1    LIG   0.0000
   4 C4           2.7405     1.0000     1.0000 C.ar         1    LIG   0.0000
   5 S5           1.0000     1.0000     1.0000 S.3          1    LIG   0.0000
   6 C6           0.6204     2.6984     0.9997 C.ar         1    LIG   0.0000
   7 C7          -0.7097     3.1060     0.9996 C.ar         1    LIG   0.0000
   8 C8          -1.0144     4.4632     0.9983 C.ar         1    LIG   0.0000
   9 C9           0.0176     5.3963     0.9969 C.ar         1    LIG   0.0000
  10 O10         -0.2736     6.7146     0.9965 O.3          1    LIG   0.0000
  11 C11          1.3465     4.9848     0.9968 C.ar         1    LIG   0.0000
  12 C12          1.6544     3.6283     0.9986 C.ar         1    LIG   0.0000
  13 C13          3.4046     1.0007    -0.2247 C.ar         1    LIG   0.0000
  14 C14          3.0744     1.0049    -1.6024 C.2          1    LIG   0.0000
  15 C15          4.2301     0.9970    -2.3274 C.2          1    LIG   0.0000
  16 N16          5.2743     0.9892    -1.4497 N.pl3        1    LIG   0.0000
  17 C17          4.7817     0.9940    -0.1702 C.ar         1    LIG   0.0000
  18 N18          5.4001     0.9939     1.0284 N.ar         1    LIG   0.0000
  19 H            6.2427     0.9812    -1.6992 H            1    LIG   0.0000
  20 H            6.4822     1.0013     3.3919 H            1    LIG   0.0000
  21 H            5.2442     1.8238     4.0684 H            1    LIG   0.0000
  22 H            5.2412     0.1909     4.0774 H            1    LIG   0.0000
  23 H           -1.4434     2.4265     1.0006 H            1    LIG   0.0000
  24 H           -1.9675     4.7658     0.9983 H            1    LIG   0.0000
  25 H            0.4643     7.3896     0.9955 H            1    LIG   0.0000
  26 H            2.0804     5.6641     0.9954 H            1    LIG   0.0000
  27 H            2.6075     3.3256     0.9990 H            1    LIG   0.0000
  28 H            2.1486     1.0125    -1.9804 H            1    LIG   0.0000
  29 H            4.2994     0.9970    -3.3250 H            1    LIG   0.0000
@<TRIPOS>BOND
   1        1        2 1
   2        2        3 ar
   3        3        4 ar
   4        4        5 1
   5        5        6 1
   6        6        7 ar
   7        7        8 ar
   8        8        9 ar
   9        9       10 1
  10        9       11 ar
  11       11       12 ar
  12       12        6 ar
  13        4       13 ar
  14       13       14 1
  15       14       15 2
  16       15       16 1
  17       16       17 1
  18       17       13 ar
  19       17       18 ar
  20       18        2 ar
  21       16       19 1
  22        1       20 1
  23        1       21 1
  24        1       22 1
  25        7       23 1
  26        8       24 1
  27       10       25 1
  28       11       26 1
  29       12       27 1
  30       14       28 1
  31       15       29 1

@<TRIPOS>MOLECULE

  29   31
SMALL
USER_CHARGES
@<TRIPOS>ATOM
   1 C1           5.4954     1.0040     3.5537 C.3          1    LIG   0.0000
   2 C2           4.7598     0.9980     2.2150 C.ar         1    LIG   0.0000
   3 N3           3.4167     1.0002     2.1604 N.ar         1    LIG   0.0000
   4 C4           2.7405     1.0000     1.0000 C.ar         1    LIG   0.0000
   5 S5           1.0000     1.0000     1.0000 S.3          1    LIG   0.0000
   6 C6           0.6204     2.6984     0.9997 C.ar         1    LIG   0.0000
   7 C7           0.4703     3.3700     2.2087 C.ar         1    LIG   0.0000
   8 C8           0.1658     4.7272     2.2098 C.ar         1    LIG   0.0000
   9 C9           0.0150     5.3957     0.9990 C.ar         1    LIG   0.0000
  10 O10         -0.2796     6.7132     0.9953 O.3          1    LIG   0.0000
  11 C11          0.1657     4.7206    -0.2081 C.ar         1    LIG   0.0000
  12 C12          0.4706     3.3635    -0.2124 C.ar         1    LIG   0.0000
  13 C13          3.4046     1.0007    -0.2247 C.ar         1    LIG   0.0000
  14 C14          3.0744     1.0049    -1.6024 C.2          1    LIG   0.0000
  15 C15          4.2301     0.9970    -2.3274 C.2          1    LIG   0.0000
  16 N16          5.2743     0.9892    -1.4497 N.pl3        1    LIG   0.0000
  17 C17          4.7817     0.9940    -0.1702 C.ar         1    LIG   0.0000
  18 N18          5.4001     0.9939     1.0284 N.ar         1    LIG   0.0000
  19 H            6.2427     0.9812    -1.6992 H            1    LIG   0.0000
  20 H            6.4822     1.0013     3.3919 H            1    LIG   0.0000
  21 H            5.2442     1.8238     4.0684 H            1    LIG   0.0000
  22 H            5.2412     0.1909     4.0774 H            1    LIG   0.0000
  23 H            0.5808     2.8793     3.0730 H            1    LIG   0.0000
  24 H            0.0560     5.2184     3.0738 H            1    LIG   0.0000
  25 H           -0.3891     7.1987     0.1279 H            1    LIG   0.0000
  26 H            0.0548     5.2110    -1.0725 H            1    LIG   0.0000
  27 H            0.5808     2.8722    -1.0764 H            1    LIG   0.0000
  28 H            2.1486     1.0125    -1.9804 H            1    LIG   0.0000
  29 H            4.2994     0.9970    -3.3250 H            1    LIG   0.0000
@<TRIPOS>BOND
   1        1        2 1
   2        2        3 ar
   3        3        4 ar
   4        4        5 1
   5        5        6 1
   6        6        7 ar
   7        7        8 ar
   8        8        9 ar
   9        9       10 1
  10        9       11 ar
  11       11       12 ar
  12       12        6 ar
  13        4       13 ar
  14       13       14 1
  15       14       15 2
  16       15       16 1
  17       16       17 1
  18       17       13 ar
  19       17       18 ar
  20       18        2 ar
  21       16       19 1
  22        1       20 1
  23        1       21 1
  24        1       22 1
  25        7       23 1
  26        8       24 1
  27       10       25 1
  28       11       26 1
  29       12       27 1
  30       14       28 1
  31       15       29 1

@<TRIPOS>MOLECULE

  29   31
SMALL
USER_CHARGES
@<TRIPOS>ATOM
   1 C1           5.4954    -0.6384     2.9589 C.3          1    LIG   0.0000
   2 C2           4.7598     0.2175     1.9295 C.ar         1    LIG   0.0000
   3 N3           3.4167     0.2542     1.8891 N.ar         1    LIG   0.0000
   4 C4           2.7405     1.0000     1.0000 C.ar         1    LIG   0.0000
   5 S5           1.0000     1.0000     1.0000 S.3          1    LIG   0.0000
   6 C6           0.6204     2.6984     0.9997 C.ar         1    LIG   0.0000
   7 C7          -0.7097     3.1060     0.9996 C.ar         1    LIG   0.0000
   8 C8          -1.0144     4.4632     0.9983 C.ar         1    LIG   0.0000
   9 C9           0.0176     5.3963     0.9969 C.ar         1    LIG   0.0000
  10 O10         -0.2736     6.7146     0.9965 O.3          1    LIG   0.0000
  11 C11          1.3465     4.9848     0.9968 C.ar         1    LIG   0.0000
  12 C12          1.6544     3.6283     0.9986 C.ar         1    LIG   0.0000
  13 C13          3.4046     1.7878     0.0623 C.ar         1    LIG   0.0000
  14 C14          3.0744     2.6765    -0.9903 C.2          1    LIG   0.0000
  15 C15          4.2301     3.1365    -1.5508 C.2          1    LIG   0.0000
  16 N16          5.2743     2.5663    -0.8835 N.pl3        1    LIG   0.0000
  17 C17          4.7817     1.7476     0.0997 C.ar         1    LIG   0.0000
  18 N18          5.4001     0.9771     1.0178 N.ar         1    LIG   0.0000
  19 H            6.2427     2.7206    -1.0798 H            1    LIG   0.0000
  20 H            6.4822    -0.5364     2.8332 H            1    LIG   0.0000
  21 H            5.2442    -0.3412     3.8801 H            1    LIG   0.0000
  22 H            5.2412    -1.5979     2.8373 H            1    LIG   0.0000
  23 H           -1.4434     2.4265     1.0006 H            1    LIG   0.0000
  24 H           -1.9675     4.7658     0.9983 H            1    LIG   0.0000
  25 H            0.4643     7.3896     0.9955 H            1    LIG   0.0000
  26 H            2.0804     5.6641     0.9954 H            1    LIG   0.0000
  27 H            2.6075     3.3256     0.9990 H            1    LIG   0.0000
  28 H            2.1486     2.9253    -1.2751 H            1    LIG   0.0000
  29 H            4.2994     3.7777    -2.3151 H            1    LIG   0.0000
@<TRIPOS>BOND
   1        1        2 1
   2        2        3 ar
   3        3        4 ar
   4        4        5 1
   5        5        6 1
   6        6        7 ar
   7        7        8 ar
   8        8        9 ar
   9        9       10 1
  10        9       11 ar
  11       11       12 ar
  12       12        6 ar
  13        4       13 ar
  14       13       14 1
  15       14       15 2
  16       15       16 1
  17       16       17 1
  18       17       13 ar
  19       17       18 ar
  20       18        2 ar
  21       16       19 1
  22        1       20 1
  23        1       21 1
  24        1       22 1
  25        7       23 1
  26        8       24 1
  27       10       25 1
  28       11       26 1
  29       12       27 1
  30       14       28 1
  31       15       29 1

@<TRIPOS>MOLECULE

  29   31
SMALL
USER_CHARGES
@<TRIPOS>ATOM
   1 C1           5.4954     2.6446     2.9537 C.3          1    LIG   0.0000
   2 C2           4.7598     1.7795     1.9320 C.ar         1    LIG   0.0000
   3 N3           3.4167     1.7461     1.8888 N.ar         1    LIG   0.0000
   4 C4           2.7405     1.0000     1.0000 C.ar         1    LIG   0.0000
   5 S5           1.0000     1.0000     1.0000 S.3          1    LIG   0.0000
   6 C6           0.6204     2.6984     0.9997 C.ar         1    LIG   0.0000
   7 C7          -0.7097     3.1060     0.9996 C.ar         1    LIG   0.0000
   8 C8          -1.0144     4.4632     0.9983 C.ar         1    LIG   0.0000
   9 C9           0.0176     5.3963     0.9969 C.ar         1    LIG   0.0000
  10 O10         -0.2736     6.7146     0.9965 O.3          1    LIG   0.0000
  11 C11          1.3465     4.9848     0.9968 C.ar         1    LIG   0.0000
  12 C12          1.6544     3.6283     0.9986 C.ar         1    LIG   0.0000
  13 C13          3.4046     0.2133     0.0614 C.ar         1    LIG   0.0000
  14 C14          3.0744    -0.6690    -0.9967 C.2          1    LIG   0.0000
  15 C15          4.2301    -1.1411    -1.5470 C.2          1    LIG   0.0000
  16 N16          5.2743    -0.5829    -0.8696 N.pl3        1    LIG   0.0000
  17 C17          4.7817     0.2432     0.1074 C.ar         1    LIG   0.0000
  18 N18          5.4001     1.0136     1.0257 N.ar         1    LIG   0.0000
  19 H            6.2427    -0.7494    -1.0556 H            1    LIG   0.0000
  20 H            6.4822     2.5385     2.8314 H            1    LIG   0.0000
  21 H            5.2442     3.6034     2.8210 H            1    LIG   0.0000
  22 H            5.2412     2.3582     3.8775 H            1    LIG   0.0000
  23 H           -1.4434     2.4265     1.0006 H            1    LIG   0.0000
  24 H           -1.9675     4.7658     0.9983 H            1    LIG   0.0000
  25 H            0.4643     7.3896     0.9955 H            1    LIG   0.0000
  26 H            2.0804     5.6641     0.9954 H            1    LIG   0.0000
  27 H            2.6075     3.3256     0.9990 H            1    LIG   0.0000
  28 H            2.1486    -0.9062    -1.2911 H            1    LIG   0.0000
  29 H            4.2994    -1.7824    -2.3112 H            1    LIG   0.0000
@<TRIPOS>BOND
   1        1        2 1
   2        2        3 ar
   3        3        4 ar
   4        4        5 1
   5        5        6 1
   6        6        7 ar
   7        7        8 ar
   8        8        9 ar
   9        9       10 1
  10        9       11 ar
  11       11       12 ar
  12       12        6 ar
  13        4       13 ar
  14       13       14 1
  15       14       15 2
  16       15       16 1
  17       16       17 1
  18       17       13 ar
  19       17       18 ar
  20       18        2 ar
  21       16       19 1
  22        1       20 1
  23        1       21 1
  24        1       22 1
  25        7       23 1
  26        8       24 1
  27       10       25 1
  28       11       26 1
  29       12       27 1
  30       14       28 1
  31       15       29 1

@<TRIPOS>MOLECULE

  29   31
SMALL
USER_CHARGES
@<TRIPOS>ATOM
   1 C1           5.4954     0.9960    -1.5537 C.3          1    LIG   0.0000
   2 C2           4.7598     1.0020    -0.2150 C.ar         1    LIG   0.0000
   3 N3           3.4167     0.9998    -0.1604 N.ar         1    LIG   0.0000
   4 C4           2.7405     1.0000     1.0000 C.ar         1    LIG   0.0000
   5 S5           1.0000     1.0000     1.0000 S.3          1    LIG   0.0000
   6 C6           0.6204     2.6984     0.9997 C.ar         1    LIG   0.0000
   7 C7          -0.7097     3.1060     0.9996 C.ar         1    LIG   0.0000
   8 C8          -1.0144     4.4632     0.9983 C.ar         1    LIG   0.0000
   9 C9           0.0176     5.3963     0.9969 C.ar         1    LIG   0.0000
  10 O10         -0.2736     6.7146     0.9965 O.3          1    LIG   0.0000
  11 C11          1.3465     4.9848     0.9968 C.ar         1    LIG   0.0000
  12 C12          1.6544     3.6283     0.9986 C.ar         1    LIG   0.0000
  13 C13          3.4046     0.9993     2.2247 C.ar         1    LIG   0.0000
  14 C14          3.0744     0.9951     3.6024 C.2          1    LIG   0.0000
  15 C15          4.2301     1.0030     4.3274 C.2          1    LIG   0.0000
  16 N16          5.2743     1.0108     3.4497 N.pl3        1    LIG   0.0000
  17 C17          4.7817     1.0060     2.1702 C.ar         1    LIG   0.0000
  18 N18          5.4001     1.0061     0.9716 N.ar         1    LIG   0.0000
  19 H            6.2427     1.0188     3.6992 H            1    LIG   0.0000
  20 H            6.4822     0.9987    -1.3919 H            1    LIG   0.0000
  21 H            5.2442     0.1762    -2.0684 H            1    LIG   0.0000
  22 H            5.2412     1.8091    -2.0774 H            1    LIG   0.0000
  23 H           -1.4434     2.4265     1.0006 H            1    LIG   0.0000
  24 H           -1.9675     4.7658     0.9983 H            1    LIG   0.0000
  25 H            0.4643     7.3896     0.9955 H            1    LIG   0.0000
  26 H            2.0804     5.6641     0.9954 H            1    LIG   0.0000
  27 H            2.6075     3.3256     0.9990 H            1    LIG   0.0000
  28 H            2.1486     0.9875     3.9804 H            1    LIG   0.0000
  29 H            4.2994     1.0030     5.3250 H            1    LIG   0.0000
@<TRIPOS>BOND
   1        1        2 1
   2        2        3 ar
   3        3        4 ar
   4        4        5 1
   5        5        6 1
   6        6        7 ar
   7        7        8 ar
   8        8        9 ar
   9        9       10 1
  10        9       11 ar
  11       11       12 ar
  12       12        6 ar
  13        4       13 ar
  14       13       14 1
  15       14       15 2
  16       15       16 1
  17       16       17 1
  18       17       13 ar
  19       17       18 ar
  20       18        2 ar
  21       16       19 1
  22        1       20 1
  23        1       21 1
  24        1       22 1
  25        7       23 1
  26        8       24 1
  27       10       25 1
  28       11       26 1
  29       12       27 1
  30       14       28 1
  31       15       29 1

@<TRIPOS>MOLECULE

  29   31
SMALL
USER_CHARGES
@<TRIPOS>ATOM
   1 C1           5.4954     0.9960    -1.5537 C.3          1    LIG   0.0000
   2 C2           4.7598     1.0020    -0.2150 C.ar         1    LIG   0.0000
   3 N3           3.4167     0.9998    -0.1604 N.ar         1    LIG   0.0000
   4 C4           2.7405     1.0000     1.0000 C.ar         1    LIG   0.0000
   5 S5           1.0000     1.0000     1.0000 S.3          1    LIG   0.0000
   6 C6           0.6204     2.6984     0.9997 C.ar         1    LIG   0.0000
   7 C7           0.4703     3.3700     2.2087 C.ar         1    LIG   0.0000
   8 C8           0.1658     4.7272     2.2098 C.ar         1    LIG   0.0000
   9 C9           0.0150     5.3957     0.9990 C.ar         1    LIG   0.0000
  10 O10         -0.2796     6.7132     0.9953 O.3          1    LIG   0.0000
  11 C11          0.1657     4.7206    -0.2081 C.ar         1    LIG   0.0000
  12 C12          0.4706     3.3635    -0.2124 C.ar         1    LIG   0.0000
  13 C13          3.4046     0.9993     2.2247 C.ar         1    LIG   0.0000
  14 C14          3.0744     0.9951     3.6024 C.2          1    LIG   0.0000
  15 C15          4.2301     1.0030     4.3274 C.2          1    LIG   0.0000
  16 N16          5.2743     1.0108     3.4497 N.pl3        1    LIG   0.0000
  17 C17          4.7817     1.0060     2.1702 C.ar         1    LIG   0.0000
  18 N18          5.4001     1.0061     0.9716 N.ar         1    LIG   0.0000
  19 H            6.2427     1.0188     3.6992 H            1    LIG   0.0000
  20 H            6.4822     0.9987    -1.3919 H            1    LIG   0.0000
  21 H            5.2442     0.1762    -2.0684 H            1    LIG   0.0000
  22 H            5.2412     1.8091    -2.0774 H            1    LIG   0.0000
  23 H            0.5808     2.8793     3.0730 H            1    LIG   0.0000
  24 H            0.0560     5.2184     3.0738 H            1    LIG   0.0000
  25 H           -0.3891     7.1987     0.1279 H            1    LIG   0.0000
  26 H            0.0548     5.2110    -1.0725 H            1    LIG   0.0000
  27 H            0.5808     2.8722    -1.0764 H            1    LIG   0.0000
  28 H            2.1486     0.9875     3.9804 H            1    LIG   0.0000
  29 H            4.2994     1.0030     5.3250 H            1    LIG   0.0000
@<TRIPOS>BOND
   1        1        2 1
   2        2        3 ar
   3        3        4 ar
   4        4        5 1
   5        5        6 1
   6        6        7 ar
   7        7        8 ar
   8        8        9 ar
   9        9       10 1
  10        9       11 ar
  11       11       12 ar
  12       12        6 ar
  13        4       13 ar
  14       13       14 1
  15       14       15 2
  16       15       16 1
  17       16       17 1
  18       17       13 ar
  19       17       18 ar
  20       18        2 ar
  21       16       19 1
  22        1       20 1
  23        1       21 1
  24        1       22 1
  25        7       23 1
  26        8       24 1
  27       10       25 1
  28       11       26 1
  29       12       27 1
  30       14       28 1
  31       15       29 1

@<TRIPOS>MOLECULE

  29   31
SMALL
USER_CHARGES
@<TRIPOS>ATOM
   1 C1           5.4954     2.6384    -0.9589 C.3          1    LIG   0.0000
   2 C2           4.7598     1.7825     0.0705 C.ar         1    LIG   0.0000
   3 N3           3.4167     1.7458     0.1109 N.ar         1    LIG   0.0000
   4 C4           2.7405     1.0000     1.0000 C.ar         1    LIG   0.0000
   5 S5           1.0000     1.0000     1.0000 S.3          1    LIG   0.0000
   6 C6           0.6204     2.6984     0.9997 C.ar         1    LIG   0.0000
   7 C7          -0.7097     3.1060     0.9996 C.ar         1    LIG   0.0000
   8 C8          -1.0144     4.4632     0.9983 C.ar         1    LIG   0.0000
   9 C9           0.0176     5.3963     0.9969 C.ar         1    LIG   0.0000
  10 O10         -0.2736     6.7146     0.9965 O.3          1    LIG   0.0000
  11 C11          1.3465     4.9848     0.9968 C.ar         1    LIG   0.0000
  12 C12          1.6544     3.6283     0.9986 C.ar         1    LIG   0.0000
  13 C13          3.4046     0.2122     1.9377 C.ar         1    LIG   0.0000
  14 C14          3.0744    -0.6765     2.9903 C.2          1    LIG   0.0000
  15 C15          4.2301    -1.1365     3.5508 C.2          1    LIG   0.0000
  16 N16          5.2743    -0.5663     2.8835 N.pl3        1    LIG   0.0000
  17 C17          4.7817     0.2524     1.9003 C.ar         1    LIG   0.0000
  18 N18          5.4001     1.0229     0.9822 N.ar         1    LIG   0.0000
  19 H            6.2427    -0.7206     3.0798 H            1    LIG   0.0000
  20 H            6.4822     2.5364    -0.8332 H            1    LIG   0.0000
  21 H            5.2442     2.3412    -1.8801 H            1    LIG   0.0000
  22 H            5.2412     3.5979    -0.8373 H            1    LIG   0.0000
  23 H           -1.4434     2.4265     1.0006 H            1    LIG   0.0000
  24 H           -1.9675     4.7658     0.9983 H            1    LIG   0.0000
  25 H            0.4643     7.3896     0.9955 H            1    LIG   0.0000
  26 H            2.0804     5.6641     0.9954 H            1    LIG   0.0000
  27 H            2.6075     3.3256     0.9990 H            1    LIG   0.0000
  28 H            2.1486    -0.9253     3.2751 H            1    LIG   0.0000
  29 H            4.2994    -1.7777     4.3151 H            1    LIG   0.0000
@<TRIPOS>BOND
   1        1        2 1
   2        2        3 ar
   3        3        4 ar
   4        4        5 1
   5        5        6 1
   6        6        7 ar
   7        7        8 ar
   8        8        9 ar
   9        9       10 1
  10        9       11 ar
  11       11       12 ar
  12       12        6 ar
  13        4       13 ar
  14       13       14 1
  15       14       15 2
  16       15       16 1
  17       16       17 1
  18       17       13 ar
  19       17       18 ar
  20       18        2 ar
  21       16       19 1
  22        1       20 1
  23        1       21 1
  24        1       22 1
  25        7       23 1
  26        8       24 1
  27       10       25 1
  28       11       26 1
  29       12       27 1
  30       14       28 1
  31       15       29 1

@<TRIPOS>MOLECULE

  29   31
SMALL
USER_CHARGES
@<TRIPOS>ATOM
   1 C1           5.4954     2.6384    -0.9589 C.3          1    LIG   0.0000
   2 C2           4.7598     1.7825     0.0705 C.ar         1    LIG   0.0000
   3 N3           3.4167     1.7458     0.1109 N.ar         1    LIG   0.0000
   4 C4           2.7405     1.0000     1.0000 C.ar         1    LIG   0.0000
   5 S5           1.0000     1.0000     1.0000 S.3          1    LIG   0.0000
   6 C6           0.6204     2.6984     0.9997 C.ar         1    LIG   0.0000
   7 C7           0.4703     3.3700     2.2087 C.ar         1    LIG   0.0000
   8 C8           0.1658     4.7272     2.2098 C.ar         1    LIG   0.0000
   9 C9           0.0150     5.3957     0.9990 C.ar         1    LIG   0.0000
  10 O10         -0.2796     6.7132     0.9953 O.3          1    LIG   0.0000
  11 C11          0.1657     4.7206    -0.2081 C.ar         1    LIG   0.0000
  12 C12          0.4706     3.3635    -0.2124 C.ar         1    LIG   0.0000
  13 C13          3.4046     0.2122     1.9377 C.ar         1    LIG   0.0000
  14 C14          3.0744    -0.6765     2.9903 C.2          1    LIG   0.0000
  15 C15          4.2301    -1.1365     3.5508 C.2          1    LIG   0.0000
  16 N16          5.2743    -0.5663     2.8835 N.pl3        1    LIG   0.0000
  17 C17          4.7817     0.2524     1.9003 C.ar         1    LIG   0.0000
  18 N18          5.4001     1.0229     0.9822 N.ar         1    LIG   0.0000
  19 H            6.2427    -0.7206     3.0798 H            1    LIG   0.0000
  20 H            6.4822     2.5364    -0.8332 H            1    LIG   0.0000
  21 H            5.2442     2.3412    -1.8801 H            1    LIG   0.0000
  22 H            5.2412     3.5979    -0.8373 H            1    LIG   0.0000
  23 H            0.5808     2.8793     3.0730 H            1    LIG   0.0000
  24 H            0.0560     5.2184     3.0738 H            1    LIG   0.0000
  25 H           -0.3891     7.1987     0.1279 H            1    LIG   0.0000
  26 H            0.0548     5.2110    -1.0725 H            1    LIG   0.0000
  27 H            0.5808     2.8722    -1.0764 H            1    LIG   0.0000
  28 H            2.1486    -0.9253     3.2751 H            1    LIG   0.0000
  29 H            4.2994    -1.7777     4.3151 H            1    LIG   0.0000
@<TRIPOS>BOND
   1        1        2 1
   2        2        3 ar
   3        3        4 ar
   4        4        5 1
   5        5        6 1
   6        6        7 ar
   7        7        8 ar
   8        8        9 ar
   9        9       10 1
  10        9       11 ar
  11       11       12 ar
  12       12        6 ar
  13        4       13 ar
  14       13       14 1
  15       14       15 2
  16       15       16 1
  17       16       17 1
  18       17       13 ar
  19       17       18 ar
  20       18        2 ar
  21       16       19 1
  22        1       20 1
  23        1       21 1
  24        1       22 1
  25        7       23 1
  26        8       24 1
  27       10       25 1
  28       11       26 1
  29       12       27 1
  30       14       28 1
  31       15       29 1

@<TRIPOS>MOLECULE

  29   31
SMALL
USER_CHARGES
@<TRIPOS>ATOM
   1 C1           5.4954    -0.6446    -0.9537 C.3          1    LIG   0.0000
   2 C2           4.7598     0.2205     0.0680 C.ar         1    LIG   0.0000
   3 N3           3.4167     0.2539     0.1112 N.ar         1    LIG   0.0000
   4 C4           2.7405     1.0000     1.0000 C.ar         1    LIG   0.0000
   5 S5           1.0000     1.0000     1.0000 S.3          1    LIG   0.0000
   6 C6           0.6204     2.6984     0.9997 C.ar         1    LIG   0.0000
   7 C7          -0.7097     3.1060     0.9996 C.ar         1    LIG   0.0000
   8 C8          -1.0144     4.4632     0.9983 C.ar         1    LIG   0.0000
   9 C9           0.0176     5.3963     0.9969 C.ar         1    LIG   0.0000
  10 O10         -0.2736     6.7146     0.9965 O.3          1    LIG   0.0000
  11 C11          1.3465     4.9848     0.9968 C.ar         1    LIG   0.0000
  12 C12          1.6544     3.6283     0.9986 C.ar         1    LIG   0.0000
  13 C13          3.4046     1.7867     1.9386 C.ar         1    LIG   0.0000
  14 C14          3.0744     2.6690     2.9967 C.2          1    LIG   0.0000
  15 C15          4.2301     3.1411     3.5470 C.2          1    LIG   0.0000
  16 N16          5.2743     2.5829     2.8696 N.pl3        1    LIG   0.0000
  17 C17          4.7817     1.7568     1.8926 C.ar         1    LIG   0.0000
  18 N18          5.4001     0.9864     0.9743 N.ar         1    LIG   0.0000
  19 H            6.2427     2.7494     3.0556 H            1    LIG   0.0000
  20 H            6.4822    -0.5385    -0.8314 H            1    LIG   0.0000
  21 H            5.2442    -1.6034    -0.8210 H            1    LIG   0.0000
  22 H            5.2412    -0.3582    -1.8775 H            1    LIG   0.0000
  23 H           -1.4434     2.4265     1.0006 H            1    LIG   0.0000
  24 H           -1.9675     4.7658     0.9983 H            1    LIG   0.0000
  25 H            0.4643     7.3896     0.9955 H            1    LIG   0.0000
  26 H            2.0804     5.6641     0.9954 H            1    LIG   0.0000
  27 H            2.6075     3.3256     0.9990 H            1    LIG   0.0000
  28 H            2.1486     2.9062     3.2911 H            1    LIG   0.0000
  29 H            4.2994     3.7824     4.3112 H            1    LIG   0.0000
@<TRIPOS>BOND
   1        1        2 1
   2        2        3 ar
   3        3        4 ar
   4        4        5 1
   5        5        6 1
   6        6        7 ar
   7        7        8 ar
   8        8        9 ar
   9        9       10 1
  10        9       11 ar
  11       11       12 ar
  12       12        6 ar
  13        4       13 ar
  14       13       14 1
  15       14       15 2
  16       15       16 1
  17       16       17 1
  18       17       13 ar
  19       17       18 ar
  20       18        2 ar
  21       16       19 1
  22        1       20 1
  23        1       21 1
  24        1       22 1
  25        7       23 1
  26        8       24 1
  27       10       25 1
  28       11       26 1
  29       12       27 1
  30       14       28 1
  31       15       29 1

