@<TRIPOS>MOLECULE
*****
 29 31 0 0 0
SMALL
USER_CHARGES

@<TRIPOS>ATOM
      1 C1          5.4954   -0.6446   -0.9537 C.3     1  LIG1        0.0000
      2 C2          4.7598    0.2205    0.0680 C.ar    1  LIG1        0.0000
      3 N3          3.4167    0.2539    0.1112 N.ar    1  LIG1        0.0000
      4 C4          2.7405    1.0000    1.0000 C.ar    1  LIG1        0.0000
      5 S5          1.0000    1.0000    1.0000 S.3     1  LIG1        0.0000
      6 C6          0.6204    2.6984    0.9997 C.ar    1  LIG1        0.0000
      7 C7         -0.7097    3.1060    0.9996 C.ar    1  LIG1        0.0000
      8 C8         -1.0144    4.4632    0.9983 C.ar    1  LIG1        0.0000
      9 C9          0.0176    5.3963    0.9969 C.ar    1  LIG1        0.0000
     10 O10        -0.2736    6.7146    0.9965 O.3     1  LIG1        0.0000
     11 C11         1.3465    4.9848    0.9968 C.ar    1  LIG1        0.0000
     12 C12         1.6544    3.6283    0.9986 C.ar    1  LIG1        0.0000
     13 C13         3.4046    1.7867    1.9386 C.ar    1  LIG1        0.0000
     14 C14         3.0744    2.6690    2.9967 C.2     1  LIG1        0.0000
     15 C15         4.2301    3.1411    3.5470 C.2     1  LIG1        0.0000
     16 N16         5.2743    2.5829    2.8696 N.pl3   1  LIG1        0.0000
     17 C17         4.7817    1.7568    1.8926 C.ar    1  LIG1        0.0000
     18 N18         5.4001    0.9864    0.9743 N.ar    1  LIG1        0.0000
     19 H           6.2427    2.7494    3.0556 H       1  LIG1        0.0000
     20 H           6.4822   -0.5385   -0.8314 H       1  LIG1        0.0000
     21 H           5.2442   -1.6034   -0.8210 H       1  LIG1        0.0000
     22 H           5.2412   -0.3582   -1.8775 H       1  LIG1        0.0000
     23 H          -1.4434    2.4265    1.0006 H       1  LIG1        0.0000
     24 H          -1.9675    4.7658    0.9983 H       1  LIG1        0.0000
     25 H           0.4643    7.3896    0.9955 H       1  LIG1        0.0000
     26 H           2.0804    5.6641    0.9954 H       1  LIG1        0.0000
     27 H           2.6075    3.3256    0.9990 H       1  LIG1        0.0000
     28 H           2.1486    2.9062    3.2911 H       1  LIG1        0.0000
     29 H           4.2994    3.7824    4.3112 H       1  LIG1        0.0000
@<TRIPOS>BOND
     1     1     2    1
     2     2     3   ar
     3     3     4   ar
     4     4     5    1
     5     5     6    1
     6     6     7   ar
     7     7     8   ar
     8     8     9   ar
     9     9    10    1
    10     9    11   ar
    11    11    12   ar
    12    12     6   ar
    13     4    13   ar
    14    13    14    1
    15    14    15    2
    16    15    16    1
    17    16    17    1
    18    17    13   ar
    19    17    18   ar
    20    18     2   ar
    21    16    19    1
    22     1    20    1
    23     1    21    1
    24     1    22    1
    25     7    23    1
    26     8    24    1
    27    10    25    1
    28    11    26    1
    29    12    27    1
    30    14    28    1
    31    15    29    1
