@<TRIPOS>MOLECULE
*****
 29 31 0 0 0
SMALL
USER_CHARGES

@<TRIPOS>ATOM
      1 C1          5.4954   -1.3984    1.8772 C.3     1  LIG1        0.0000
      2 C2          4.7598   -0.1424    1.4137 C.ar    1  LIG1        0.0000
      3 N3          3.4167   -0.0904    1.3971 N.ar    1  LIG1        0.0000
      4 C4          2.7405    1.0000    1.0000 C.ar    1  LIG1        0.0000
      5 S5          1.0000    1.0000    1.0000 S.3     1  LIG1        0.0000
      6 C6          0.6204    2.6984    0.9997 C.ar    1  LIG1        0.0000
      7 C7          1.0603    3.5018    2.0467 C.ar    1  LIG1        0.0000
      8 C8          0.7565    4.8592    2.0482 C.ar    1  LIG1        0.0000
      9 C9          0.0152    5.3958    1.0002 C.ar    1  LIG1        0.0000
     10 O10        -0.2811    6.7129    0.9971 O.3     1  LIG1        0.0000
     11 C11        -0.4231    4.5890   -0.0450 C.ar    1  LIG1        0.0000
     12 C12        -0.1206    3.2314   -0.0495 C.ar    1  LIG1        0.0000
     13 C13         3.4046    2.1511    0.5818 C.ar    1  LIG1        0.0000
     14 C14         3.0744    3.4471    0.1146 C.2     1  LIG1        0.0000
     15 C15         4.2301    4.1257   -0.1408 C.2     1  LIG1        0.0000
     16 N16         5.2743    3.2983    0.1520 N.pl3   1  LIG1        0.0000
     17 C17         4.7817    2.0976    0.5941 C.ar    1  LIG1        0.0000
     18 N18         5.4001    0.9712    1.0040 N.ar    1  LIG1        0.0000
     19 H           6.2427    3.5300    0.0592 H       1  LIG1        0.0000
     20 H           6.4822   -1.2472    1.8193 H       1  LIG1        0.0000
     21 H           5.2442   -1.6016    2.8236 H       1  LIG1        0.0000
     22 H           5.2412   -2.1685    1.2922 H       1  LIG1        0.0000
     23 H           1.5925    3.1054    2.7948 H       1  LIG1        0.0000
     24 H           1.0685    5.4447    2.7964 H       1  LIG1        0.0000
     25 H          -0.8136    7.1038    0.2463 H       1  LIG1        0.0000
     26 H          -0.9556    4.9852   -0.7930 H       1  LIG1        0.0000
     27 H          -0.4321    2.6458   -0.7979 H       1  LIG1        0.0000
     28 H           2.1486    3.8049   -0.0076 H       1  LIG1        0.0000
     29 H           4.2994    5.0631   -0.4821 H       1  LIG1        0.0000
@<TRIPOS>BOND
     1     1     2    1
     2     2     3   ar
     3     3     4   ar
     4     4     5    1
     5     5     6    1
     6     6     7   ar
     7     7     8   ar
     8     8     9   ar
     9     9    10    1
    10     9    11   ar
    11    11    12   ar
    12    12     6   ar
    13     4    13   ar
    14    13    14    1
    15    14    15    2
    16    15    16    1
    17    16    17    1
    18    17    13   ar
    19    17    18   ar
    20    18     2   ar
    21    16    19    1
    22     1    20    1
    23     1    21    1
    24     1    22    1
    25     7    23    1
    26     8    24    1
    27    10    25    1
    28    11    26    1
    29    12    27    1
    30    14    28    1
    31    15    29    1
