@<TRIPOS>MOLECULE
*****
 29 31 0 0 0
SMALL
USER_CHARGES

@<TRIPOS>ATOM
      1 C1          5.4954    3.5537    0.9960 C.3     1  LIG1        0.0000
      2 C2          4.7598    2.2150    1.0020 C.ar    1  LIG1        0.0000
      3 N3          3.4167    2.1604    0.9998 N.ar    1  LIG1        0.0000
      4 C4          2.7405    1.0000    1.0000 C.ar    1  LIG1        0.0000
      5 S5          1.0000    1.0000    1.0000 S.3     1  LIG1        0.0000
      6 C6          0.6204    2.6984    0.9997 C.ar    1  LIG1        0.0000
      7 C7         -0.5516    3.1414    1.6042 C.ar    1  LIG1        0.0000
      8 C8         -0.8567    4.4985    1.6036 C.ar    1  LIG1        0.0000
      9 C9          0.0164    5.3960    0.9971 C.ar    1  LIG1        0.0000
     10 O10        -0.2753    6.7142    0.9950 O.3     1  LIG1        0.0000
     11 C11         1.1874    4.9491    0.3934 C.ar    1  LIG1        0.0000
     12 C12         1.4954    3.5927    0.3927 C.ar    1  LIG1        0.0000
     13 C13         3.4046   -0.2247    0.9993 C.ar    1  LIG1        0.0000
     14 C14         3.0744   -1.6024    0.9951 C.2     1  LIG1        0.0000
     15 C15         4.2301   -2.3274    1.0030 C.2     1  LIG1        0.0000
     16 N16         5.2743   -1.4497    1.0108 N.pl3   1  LIG1        0.0000
     17 C17         4.7817   -0.1702    1.0060 C.ar    1  LIG1        0.0000
     18 N18         5.4001    1.0284    1.0061 N.ar    1  LIG1        0.0000
     19 H           6.2427   -1.6992    1.0188 H       1  LIG1        0.0000
     20 H           6.4822    3.3919    0.9987 H       1  LIG1        0.0000
     21 H           5.2442    4.0684    0.1762 H       1  LIG1        0.0000
     22 H           5.2412    4.0774    1.8091 H       1  LIG1        0.0000
     23 H          -1.1719    2.4873    2.0371 H       1  LIG1        0.0000
     24 H          -1.6968    4.8264    2.0357 H       1  LIG1        0.0000
     25 H           0.3487    7.3637    0.5605 H       1  LIG1        0.0000
     26 H           1.8076    5.6030   -0.0399 H       1  LIG1        0.0000
     27 H           2.3357    3.2646   -0.0389 H       1  LIG1        0.0000
     28 H           2.1486   -1.9804    0.9875 H       1  LIG1        0.0000
     29 H           4.2994   -3.3250    1.0030 H       1  LIG1        0.0000
@<TRIPOS>BOND
     1     1     2    1
     2     2     3   ar
     3     3     4   ar
     4     4     5    1
     5     5     6    1
     6     6     7   ar
     7     7     8   ar
     8     8     9   ar
     9     9    10    1
    10     9    11   ar
    11    11    12   ar
    12    12     6   ar
    13     4    13   ar
    14    13    14    1
    15    14    15    2
    16    15    16    1
    17    16    17    1
    18    17    13   ar
    19    17    18   ar
    20    18     2   ar
    21    16    19    1
    22     1    20    1
    23     1    21    1
    24     1    22    1
    25     7    23    1
    26     8    24    1
    27    10    25    1
    28    11    26    1
    29    12    27    1
    30    14    28    1
    31    15    29    1
