@<TRIPOS>MOLECULE
*****
 29 31 0 0 0
SMALL
USER_CHARGES

@<TRIPOS>ATOM
      1 C1          5.4954    0.9960   -1.5537 C.3     1  LIG1        0.0000
      2 C2          4.7598    1.0020   -0.2150 C.ar    1  LIG1        0.0000
      3 N3          3.4167    0.9998   -0.1604 N.ar    1  LIG1        0.0000
      4 C4          2.7405    1.0000    1.0000 C.ar    1  LIG1        0.0000
      5 S5          1.0000    1.0000    1.0000 S.3     1  LIG1        0.0000
      6 C6          0.6204    2.6984    0.9997 C.ar    1  LIG1        0.0000
      7 C7          0.4703    3.3700    2.2087 C.ar    1  LIG1        0.0000
      8 C8          0.1658    4.7272    2.2098 C.ar    1  LIG1        0.0000
      9 C9          0.0150    5.3957    0.9990 C.ar    1  LIG1        0.0000
     10 O10        -0.2796    6.7132    0.9953 O.3     1  LIG1        0.0000
     11 C11         0.1657    4.7206   -0.2081 C.ar    1  LIG1        0.0000
     12 C12         0.4706    3.3635   -0.2124 C.ar    1  LIG1        0.0000
     13 C13         3.4046    0.9993    2.2247 C.ar    1  LIG1        0.0000
     14 C14         3.0744    0.9951    3.6024 C.2     1  LIG1        0.0000
     15 C15         4.2301    1.0030    4.3274 C.2     1  LIG1        0.0000
     16 N16         5.2743    1.0108    3.4497 N.pl3   1  LIG1        0.0000
     17 C17         4.7817    1.0060    2.1702 C.ar    1  LIG1        0.0000
     18 N18         5.4001    1.0061    0.9716 N.ar    1  LIG1        0.0000
     19 H           6.2427    1.0188    3.6992 H       1  LIG1        0.0000
     20 H           6.4822    0.9987   -1.3919 H       1  LIG1        0.0000
     21 H           5.2442    0.1762   -2.0684 H       1  LIG1        0.0000
     22 H           5.2412    1.8091   -2.0774 H       1  LIG1        0.0000
     23 H           0.5808    2.8793    3.0730 H       1  LIG1        0.0000
     24 H           0.0560    5.2184    3.0738 H       1  LIG1        0.0000
     25 H          -0.3891    7.1987    0.1279 H       1  LIG1        0.0000
     26 H           0.0548    5.2110   -1.0725 H       1  LIG1        0.0000
     27 H           0.5808    2.8722   -1.0764 H       1  LIG1        0.0000
     28 H           2.1486    0.9875    3.9804 H       1  LIG1        0.0000
     29 H           4.2994    1.0030    5.3250 H       1  LIG1        0.0000
@<TRIPOS>BOND
     1     1     2    1
     2     2     3   ar
     3     3     4   ar
     4     4     5    1
     5     5     6    1
     6     6     7   ar
     7     7     8   ar
     8     8     9   ar
     9     9    10    1
    10     9    11   ar
    11    11    12   ar
    12    12     6   ar
    13     4    13   ar
    14    13    14    1
    15    14    15    2
    16    15    16    1
    17    16    17    1
    18    17    13   ar
    19    17    18   ar
    20    18     2   ar
    21    16    19    1
    22     1    20    1
    23     1    21    1
    24     1    22    1
    25     7    23    1
    26     8    24    1
    27    10    25    1
    28    11    26    1
    29    12    27    1
    30    14    28    1
    31    15    29    1
