@<TRIPOS>MOLECULE
*****
 29 31 0 0 0
SMALL
USER_CHARGES

@<TRIPOS>ATOM
      1 C1          5.4954   -1.4011    0.1304 C.3     1  LIG1        0.0000
      2 C2          4.7598   -0.1411    0.5826 C.ar    1  LIG1        0.0000
      3 N3          3.4167   -0.0905    0.6033 N.ar    1  LIG1        0.0000
      4 C4          2.7405    1.0000    1.0000 C.ar    1  LIG1        0.0000
      5 S5          1.0000    1.0000    1.0000 S.3     1  LIG1        0.0000
      6 C6          0.6204    2.6984    0.9997 C.ar    1  LIG1        0.0000
      7 C7         -0.1197    3.2381    2.0468 C.ar    1  LIG1        0.0000
      8 C8         -0.4247    4.5951    2.0471 C.ar    1  LIG1        0.0000
      9 C9          0.0155    5.3958    0.9978 C.ar    1  LIG1        0.0000
     10 O10        -0.2775    6.7137    0.9946 O.3     1  LIG1        0.0000
     11 C11         0.7552    4.8524   -0.0476 C.ar    1  LIG1        0.0000
     12 C12         1.0621    3.4958   -0.0505 C.ar    1  LIG1        0.0000
     13 C13         3.4046    2.1506    1.4195 C.ar    1  LIG1        0.0000
     14 C14         3.0744    3.4437    1.8947 C.2     1  LIG1        0.0000
     15 C15         4.2301    4.1277    2.1352 C.2     1  LIG1        0.0000
     16 N16         5.2743    3.3057    1.8277 N.pl3   1  LIG1        0.0000
     17 C17         4.7817    2.1017    1.3946 C.ar    1  LIG1        0.0000
     18 N18         5.4001    0.9754    0.9845 N.ar    1  LIG1        0.0000
     19 H           6.2427    3.5428    1.9055 H       1  LIG1        0.0000
     20 H           6.4822   -1.2481    0.1832 H       1  LIG1        0.0000
     21 H           5.2442   -2.1651    0.7247 H       1  LIG1        0.0000
     22 H           5.2412   -1.6150   -0.8129 H       1  LIG1        0.0000
     23 H          -0.4310    2.6531    2.7957 H       1  LIG1        0.0000
     24 H          -0.9561    4.9921    2.7954 H       1  LIG1        0.0000
     25 H           0.0364    7.2938    0.2429 H       1  LIG1        0.0000
     26 H           1.0662    5.4371   -0.7969 H       1  LIG1        0.0000
     27 H           1.5939    3.0987   -0.7986 H       1  LIG1        0.0000
     28 H           2.1486    3.7963    2.0311 H       1  LIG1        0.0000
     29 H           4.2994    5.0652    2.4764 H       1  LIG1        0.0000
@<TRIPOS>BOND
     1     1     2    1
     2     2     3   ar
     3     3     4   ar
     4     4     5    1
     5     5     6    1
     6     6     7   ar
     7     7     8   ar
     8     8     9   ar
     9     9    10    1
    10     9    11   ar
    11    11    12   ar
    12    12     6   ar
    13     4    13   ar
    14    13    14    1
    15    14    15    2
    16    15    16    1
    17    16    17    1
    18    17    13   ar
    19    17    18   ar
    20    18     2   ar
    21    16    19    1
    22     1    20    1
    23     1    21    1
    24     1    22    1
    25     7    23    1
    26     8    24    1
    27    10    25    1
    28    11    26    1
    29    12    27    1
    30    14    28    1
    31    15    29    1
