@<TRIPOS>MOLECULE

  62   66
SMALL
USER_CHARGES
@<TRIPOS>ATOM
   1 C1          -6.4508     6.5658     0.0912 C.3          1    LIG   0.0000
   2 C2          -4.9313     6.5276     0.0768 C.3          1    LIG   0.0000
   3 O3          -4.4918     5.1774     0.0682 O.3          1    LIG   0.0000
   4 C4          -3.1930     5.0071     0.0555 C.2          1    LIG   0.0000
   5 O5          -2.4630     5.9596     0.0519 O.2          1    LIG   0.0000
   6 C6          -2.6373     3.6677     0.0459 C.2          1    LIG   0.0000
   7 C7          -3.3835     2.4668     0.0461 C.2          1    LIG   0.0000
   8 C8          -2.4632     1.4652     0.0310 C.2          1    LIG   0.0000
   9 N9          -1.2389     2.0617     0.0249 N.pl3        1    LIG   0.0000
  10 C10         -0.0188     1.3749     0.0102 C.ar         1    LIG   0.0000
  11 C11         -0.0117    -0.0159     0.0027 C.ar         1    LIG   0.0000
  12 C12          1.2070    -0.6862    -0.0114 C.ar         1    LIG   0.0000
  13 C13          2.4051     0.0205    -0.0192 C.ar         1    LIG   0.0000
  14 C14          2.3922     1.4112    -0.0108 C.ar         1    LIG   0.0000
  15 C15          1.1759     2.0859     0.0031 C.ar         1    LIG   0.0000
  16 N16          1.1519     3.4853     0.0098 N.am         1    LIG   0.0000
  17 C17          1.7244     4.1852    -1.0195 C.2          1    LIG   0.0000
  18 O18          2.2464     3.5983    -1.9268 O.2          1    LIG   0.0000
  19 C19          1.6983     5.7049    -1.0122 C.3          1    LIG   0.0000
  20 C20          2.3953     6.2295    -2.2570 C.3          1    LIG   0.0000
  21 C21          2.3693     7.7502    -2.2497 C.2          1    LIG   0.0000
  22 C22          3.4168     8.4958    -1.6462 C.2          1    LIG   0.0000
  23 C23          4.5647     7.7305    -1.0059 C.3          1    LIG   0.0000
  24 N24          3.3604     9.8188    -1.6601 N.2          1    LIG   0.0000
  25 C25          2.3251    10.5148    -2.2368 C.2          1    LIG   0.0000
  26 C26          2.0097    11.8401    -2.3999 C.2          1    LIG   0.0000
  27 C27          2.6158    13.0742    -2.0384 C.2          1    LIG   0.0000
  28 C28          2.0372    14.2781    -2.3477 C.2          1    LIG   0.0000
  29 C29          0.8008    14.3307    -3.0450 C.2          1    LIG   0.0000
  30 C30          0.1955    13.1548    -3.4038 C.2          1    LIG   0.0000
  31 C31          0.7879    11.9027    -3.0879 C.2          1    LIG   0.0000
  32 N32          0.4214    10.6558    -3.3099 N.2          1    LIG   0.0000
  33 N33          1.3140     9.8178    -2.8178 N.pl3        1    LIG   0.0000
  34 C34          1.3374     8.4454    -2.8240 C.2          1    LIG   0.0000
  35 C35          0.2051     7.6678    -3.4770 C.3          1    LIG   0.0000
  36 N36         -1.3606     3.3703     0.0329 N.2          1    LIG   0.0000
  37 H           -6.7603     7.5167     0.0972 H            1    LIG   0.0000
  38 H           -6.8034     6.1056    -0.7236 H            1    LIG   0.0000
  39 H           -6.7882     6.1002     0.9093 H            1    LIG   0.0000
  40 H           -4.5939     6.9932    -0.7413 H            1    LIG   0.0000
  41 H           -4.5786     6.9878     0.8916 H            1    LIG   0.0000
  42 H           -4.3791     2.3734     0.0555 H            1    LIG   0.0000
  43 H           -2.6493     0.4827     0.0254 H            1    LIG   0.0000
  44 H           -0.8712    -0.5271     0.0073 H            1    LIG   0.0000
  45 H            1.2220    -1.6861    -0.0159 H            1    LIG   0.0000
  46 H            3.2757    -0.4714    -0.0309 H            1    LIG   0.0000
  47 H            3.2516     1.9226    -0.0148 H            1    LIG   0.0000
  48 H            0.7169     3.9744     0.7659 H            1    LIG   0.0000
  49 H            2.1710     6.0425    -0.1982 H            1    LIG   0.0000
  50 H            0.7500     6.0220    -1.0026 H            1    LIG   0.0000
  51 H            3.3437     5.9125    -2.2667 H            1    LIG   0.0000
  52 H            1.9226     5.8919    -3.0710 H            1    LIG   0.0000
  53 H            4.4084     6.7481    -1.1080 H            1    LIG   0.0000
  54 H            5.4229     7.9799    -1.4546 H            1    LIG   0.0000
  55 H            4.6175     7.9604    -0.0341 H            1    LIG   0.0000
  56 H            3.4861    13.0639    -1.5461 H            1    LIG   0.0000
  57 H            2.4904    15.1282    -2.0795 H            1    LIG   0.0000
  58 H            0.3799    15.2095    -3.2698 H            1    LIG   0.0000
  59 H           -0.6753    13.1784    -3.8949 H            1    LIG   0.0000
  60 H            0.3813     6.6872    -3.3911 H            1    LIG   0.0000
  61 H           -0.6579     7.8924    -3.0244 H            1    LIG   0.0000
  62 H            0.1474     7.9126    -4.4449 H            1    LIG   0.0000
@<TRIPOS>BOND
   1        1        2 1
   2        2        3 1
   3        3        4 1
   4        4        5 2
   5        4        6 1
   6        6        7 1
   7        7        8 2
   8        8        9 1
   9        9       10 1
  10       10       11 ar
  11       11       12 ar
  12       12       13 ar
  13       13       14 ar
  14       14       15 ar
  15       15       10 ar
  16       15       16 1
  17       16       17 am
  18       17       18 2
  19       17       19 1
  20       19       20 1
  21       20       21 1
  22       21       22 1
  23       22       23 1
  24       22       24 2
  25       24       25 1
  26       25       26 2
  27       26       27 1
  28       27       28 2
  29       28       29 1
  30       29       30 2
  31       30       31 1
  32       31       26 1
  33       31       32 2
  34       32       33 1
  35       33       25 1
  36       33       34 1
  37       34       21 2
  38       34       35 1
  39        9       36 1
  40       36        6 2
  41        1       37 1
  42        1       38 1
  43        1       39 1
  44        2       40 1
  45        2       41 1
  46        7       42 1
  47        8       43 1
  48       11       44 1
  49       12       45 1
  50       13       46 1
  51       14       47 1
  52       16       48 1
  53       19       49 1
  54       19       50 1
  55       20       51 1
  56       20       52 1
  57       23       53 1
  58       23       54 1
  59       23       55 1
  60       27       56 1
  61       28       57 1
  62       29       58 1
  63       30       59 1
  64       35       60 1
  65       35       61 1
  66       35       62 1

@<TRIPOS>MOLECULE

  62   66
SMALL
USER_CHARGES
@<TRIPOS>ATOM
   1 C1          -1.9952     8.4143     0.0557 C.3          1    LIG   0.0000
   2 C2          -3.0414     7.3117     0.0618 C.3          1    LIG   0.0000
   3 O3          -2.3961     6.0469     0.0515 O.3          1    LIG   0.0000
   4 C4          -3.1930     5.0071     0.0555 C.2          1    LIG   0.0000
   5 O5          -4.3827     5.1631     0.0672 O.2          1    LIG   0.0000
   6 C6          -2.6373     3.6677     0.0459 C.2          1    LIG   0.0000
   7 C7          -3.3835     2.4668     0.0461 C.2          1    LIG   0.0000
   8 C8          -2.4632     1.4652     0.0310 C.2          1    LIG   0.0000
   9 N9          -1.2389     2.0617     0.0249 N.pl3        1    LIG   0.0000
  10 C10         -0.0188     1.3749     0.0102 C.ar         1    LIG   0.0000
  11 C11         -0.0117    -0.0159     0.0027 C.ar         1    LIG   0.0000
  12 C12          1.2070    -0.6862    -0.0114 C.ar         1    LIG   0.0000
  13 C13          2.4051     0.0205    -0.0192 C.ar         1    LIG   0.0000
  14 C14          2.3922     1.4112    -0.0108 C.ar         1    LIG   0.0000
  15 C15          1.1759     2.0859     0.0031 C.ar         1    LIG   0.0000
  16 N16          1.1519     3.4853     0.0098 N.am         1    LIG   0.0000
  17 C17          1.7244     4.1852    -1.0195 C.2          1    LIG   0.0000
  18 O18          2.2464     3.5983    -1.9268 O.2          1    LIG   0.0000
  19 C19          1.6983     5.7049    -1.0122 C.3          1    LIG   0.0000
  20 C20          2.3953     6.2295    -2.2570 C.3          1    LIG   0.0000
  21 C21          2.3693     7.7502    -2.2497 C.2          1    LIG   0.0000
  22 C22          3.4168     8.4958    -1.6462 C.2          1    LIG   0.0000
  23 C23          4.5647     7.7305    -1.0059 C.3          1    LIG   0.0000
  24 N24          3.3604     9.8188    -1.6601 N.2          1    LIG   0.0000
  25 C25          2.3251    10.5148    -2.2368 C.2          1    LIG   0.0000
  26 C26          2.0097    11.8401    -2.3999 C.2          1    LIG   0.0000
  27 C27          2.6158    13.0742    -2.0384 C.2          1    LIG   0.0000
  28 C28          2.0372    14.2781    -2.3477 C.2          1    LIG   0.0000
  29 C29          0.8008    14.3307    -3.0450 C.2          1    LIG   0.0000
  30 C30          0.1955    13.1548    -3.4038 C.2          1    LIG   0.0000
  31 C31          0.7879    11.9027    -3.0879 C.2          1    LIG   0.0000
  32 N32          0.4214    10.6558    -3.3099 N.2          1    LIG   0.0000
  33 N33          1.3140     9.8178    -2.8178 N.pl3        1    LIG   0.0000
  34 C34          1.3374     8.4454    -2.8240 C.2          1    LIG   0.0000
  35 C35          0.2051     7.6678    -3.4770 C.3          1    LIG   0.0000
  36 N36         -1.3606     3.3703     0.0329 N.2          1    LIG   0.0000
  37 H           -2.4496     9.3051     0.0629 H            1    LIG   0.0000
  38 H           -1.4162     8.3290     0.8665 H            1    LIG   0.0000
  39 H           -1.4314     8.3344    -0.7664 H            1    LIG   0.0000
  40 H           -3.6051     7.3917     0.8838 H            1    LIG   0.0000
  41 H           -3.6204     7.3971    -0.7491 H            1    LIG   0.0000
  42 H           -4.3791     2.3734     0.0555 H            1    LIG   0.0000
  43 H           -2.6493     0.4827     0.0254 H            1    LIG   0.0000
  44 H           -0.8712    -0.5271     0.0073 H            1    LIG   0.0000
  45 H            1.2220    -1.6861    -0.0159 H            1    LIG   0.0000
  46 H            3.2757    -0.4714    -0.0309 H            1    LIG   0.0000
  47 H            3.2516     1.9226    -0.0148 H            1    LIG   0.0000
  48 H            0.7169     3.9744     0.7659 H            1    LIG   0.0000
  49 H            2.1710     6.0425    -0.1982 H            1    LIG   0.0000
  50 H            0.7500     6.0220    -1.0026 H            1    LIG   0.0000
  51 H            3.3437     5.9125    -2.2667 H            1    LIG   0.0000
  52 H            1.9226     5.8919    -3.0710 H            1    LIG   0.0000
  53 H            4.4084     6.7481    -1.1080 H            1    LIG   0.0000
  54 H            5.4229     7.9799    -1.4546 H            1    LIG   0.0000
  55 H            4.6175     7.9604    -0.0341 H            1    LIG   0.0000
  56 H            3.4861    13.0639    -1.5461 H            1    LIG   0.0000
  57 H            2.4904    15.1282    -2.0795 H            1    LIG   0.0000
  58 H            0.3799    15.2095    -3.2698 H            1    LIG   0.0000
  59 H           -0.6753    13.1784    -3.8949 H            1    LIG   0.0000
  60 H            0.3813     6.6872    -3.3911 H            1    LIG   0.0000
  61 H           -0.6579     7.8924    -3.0244 H            1    LIG   0.0000
  62 H            0.1474     7.9126    -4.4449 H            1    LIG   0.0000
@<TRIPOS>BOND
   1        1        2 1
   2        2        3 1
   3        3        4 1
   4        4        5 2
   5        4        6 1
   6        6        7 1
   7        7        8 2
   8        8        9 1
   9        9       10 1
  10       10       11 ar
  11       11       12 ar
  12       12       13 ar
  13       13       14 ar
  14       14       15 ar
  15       15       10 ar
  16       15       16 1
  17       16       17 am
  18       17       18 2
  19       17       19 1
  20       19       20 1
  21       20       21 1
  22       21       22 1
  23       22       23 1
  24       22       24 2
  25       24       25 1
  26       25       26 2
  27       26       27 1
  28       27       28 2
  29       28       29 1
  30       29       30 2
  31       30       31 1
  32       31       26 1
  33       31       32 2
  34       32       33 1
  35       33       25 1
  36       33       34 1
  37       34       21 2
  38       34       35 1
  39        9       36 1
  40       36        6 2
  41        1       37 1
  42        1       38 1
  43        1       39 1
  44        2       40 1
  45        2       41 1
  46        7       42 1
  47        8       43 1
  48       11       44 1
  49       12       45 1
  50       13       46 1
  51       14       47 1
  52       16       48 1
  53       19       49 1
  54       19       50 1
  55       20       51 1
  56       20       52 1
  57       23       53 1
  58       23       54 1
  59       23       55 1
  60       27       56 1
  61       28       57 1
  62       29       58 1
  63       30       59 1
  64       35       60 1
  65       35       61 1
  66       35       62 1

@<TRIPOS>MOLECULE

  62   66
SMALL
USER_CHARGES
@<TRIPOS>ATOM
   1 C1          -6.4508     6.5658     0.0912 C.3          1    LIG   0.0000
   2 C2          -4.9313     6.5276     0.0768 C.3          1    LIG   0.0000
   3 O3          -4.4918     5.1774     0.0682 O.3          1    LIG   0.0000
   4 C4          -3.1930     5.0071     0.0555 C.2          1    LIG   0.0000
   5 O5          -2.4630     5.9596     0.0519 O.2          1    LIG   0.0000
   6 C6          -2.6373     3.6677     0.0459 C.2          1    LIG   0.0000
   7 C7          -3.3835     2.4668     0.0461 C.2          1    LIG   0.0000
   8 C8          -2.4632     1.4652     0.0310 C.2          1    LIG   0.0000
   9 N9          -1.2389     2.0617     0.0249 N.pl3        1    LIG   0.0000
  10 C10         -0.0188     1.3749     0.0102 C.ar         1    LIG   0.0000
  11 C11         -0.0117    -0.0159     0.0027 C.ar         1    LIG   0.0000
  12 C12          1.2070    -0.6862    -0.0114 C.ar         1    LIG   0.0000
  13 C13          2.4051     0.0205    -0.0192 C.ar         1    LIG   0.0000
  14 C14          2.3922     1.4112    -0.0108 C.ar         1    LIG   0.0000
  15 C15          1.1759     2.0859     0.0031 C.ar         1    LIG   0.0000
  16 N16          1.1519     3.4853     0.0098 N.am         1    LIG   0.0000
  17 C17          1.7244     4.1852    -1.0195 C.2          1    LIG   0.0000
  18 O18          2.2464     3.5983    -1.9268 O.2          1    LIG   0.0000
  19 C19          1.6983     5.7049    -1.0122 C.3          1    LIG   0.0000
  20 C20          2.3953     6.2295    -2.2570 C.3          1    LIG   0.0000
  21 C21          2.3693     7.7502    -2.2497 C.2          1    LIG   0.0000
  22 C22          1.2967     8.4652    -2.8463 C.2          1    LIG   0.0000
  23 C23          0.1756     7.6672    -3.4941 C.3          1    LIG   0.0000
  24 N24          1.3078     9.7891    -2.8199 N.2          1    LIG   0.0000
  25 C25          2.3187    10.5147    -2.2364 C.2          1    LIG   0.0000
  26 C26          2.5885    11.8484    -2.0606 C.2          1    LIG   0.0000
  27 C27          1.9405    13.0644    -2.4104 C.2          1    LIG   0.0000
  28 C28          2.4775    14.2844    -2.0896 C.2          1    LIG   0.0000
  29 C29          3.7115    14.3727    -1.3916 C.2          1    LIG   0.0000
  30 C30          4.3568    13.2149    -1.0439 C.2          1    LIG   0.0000
  31 C31          3.8076    11.9463    -1.3719 C.2          1    LIG   0.0000
  32 N32          4.2166    10.7106    -1.1617 N.2          1    LIG   0.0000
  33 N33          3.3532     9.8473    -1.6619 N.pl3        1    LIG   0.0000
  34 C34          3.3768     8.4748    -1.6687 C.2          1    LIG   0.0000
  35 C35          4.5352     7.7303    -1.0230 C.3          1    LIG   0.0000
  36 N36         -1.3606     3.3703     0.0329 N.2          1    LIG   0.0000
  37 H           -6.7603     7.5167     0.0972 H            1    LIG   0.0000
  38 H           -6.8034     6.1056    -0.7236 H            1    LIG   0.0000
  39 H           -6.7882     6.1002     0.9093 H            1    LIG   0.0000
  40 H           -4.5939     6.9932    -0.7413 H            1    LIG   0.0000
  41 H           -4.5786     6.9878     0.8916 H            1    LIG   0.0000
  42 H           -4.3791     2.3734     0.0555 H            1    LIG   0.0000
  43 H           -2.6493     0.4827     0.0254 H            1    LIG   0.0000
  44 H           -0.8712    -0.5271     0.0073 H            1    LIG   0.0000
  45 H            1.2220    -1.6861    -0.0159 H            1    LIG   0.0000
  46 H            3.2757    -0.4714    -0.0309 H            1    LIG   0.0000
  47 H            3.2516     1.9226    -0.0148 H            1    LIG   0.0000
  48 H            0.7169     3.9744     0.7659 H            1    LIG   0.0000
  49 H            2.1710     6.0425    -0.1982 H            1    LIG   0.0000
  50 H            0.7500     6.0220    -1.0026 H            1    LIG   0.0000
  51 H            3.3437     5.9125    -2.2667 H            1    LIG   0.0000
  52 H            1.9226     5.8919    -3.0710 H            1    LIG   0.0000
  53 H            0.3655     6.6898    -3.4013 H            1    LIG   0.0000
  54 H           -0.6906     7.8827    -3.0432 H            1    LIG   0.0000
  55 H            0.1148     7.9044    -4.4636 H            1    LIG   0.0000
  56 H            1.0709    13.0290    -2.9029 H            1    LIG   0.0000
  57 H            1.9954    15.1210    -2.3497 H            1    LIG   0.0000
  58 H            4.1021    15.2632    -1.1584 H            1    LIG   0.0000
  59 H            5.2264    13.2636    -0.5525 H            1    LIG   0.0000
  60 H            4.3927     6.7451    -1.1183 H            1    LIG   0.0000
  61 H            5.3899     7.9886    -1.4733 H            1    LIG   0.0000
  62 H            4.5846     7.9677    -0.0528 H            1    LIG   0.0000
@<TRIPOS>BOND
   1        1        2 1
   2        2        3 1
   3        3        4 1
   4        4        5 2
   5        4        6 1
   6        6        7 1
   7        7        8 2
   8        8        9 1
   9        9       10 1
  10       10       11 ar
  11       11       12 ar
  12       12       13 ar
  13       13       14 ar
  14       14       15 ar
  15       15       10 ar
  16       15       16 1
  17       16       17 am
  18       17       18 2
  19       17       19 1
  20       19       20 1
  21       20       21 1
  22       21       22 1
  23       22       23 1
  24       22       24 2
  25       24       25 1
  26       25       26 2
  27       26       27 1
  28       27       28 2
  29       28       29 1
  30       29       30 2
  31       30       31 1
  32       31       26 1
  33       31       32 2
  34       32       33 1
  35       33       25 1
  36       33       34 1
  37       34       21 2
  38       34       35 1
  39        9       36 1
  40       36        6 2
  41        1       37 1
  42        1       38 1
  43        1       39 1
  44        2       40 1
  45        2       41 1
  46        7       42 1
  47        8       43 1
  48       11       44 1
  49       12       45 1
  50       13       46 1
  51       14       47 1
  52       16       48 1
  53       19       49 1
  54       19       50 1
  55       20       51 1
  56       20       52 1
  57       23       53 1
  58       23       54 1
  59       23       55 1
  60       27       56 1
  61       28       57 1
  62       29       58 1
  63       30       59 1
  64       35       60 1
  65       35       61 1
  66       35       62 1

@<TRIPOS>MOLECULE

  62   66
SMALL
USER_CHARGES
@<TRIPOS>ATOM
   1 C1          -1.9952     8.4143     0.0557 C.3          1    LIG   0.0000
   2 C2          -3.0414     7.3117     0.0618 C.3          1    LIG   0.0000
   3 O3          -2.3961     6.0469     0.0515 O.3          1    LIG   0.0000
   4 C4          -3.1930     5.0071     0.0555 C.2          1    LIG   0.0000
   5 O5          -4.3827     5.1631     0.0672 O.2          1    LIG   0.0000
   6 C6          -2.6373     3.6677     0.0459 C.2          1    LIG   0.0000
   7 C7          -3.3835     2.4668     0.0461 C.2          1    LIG   0.0000
   8 C8          -2.4632     1.4652     0.0310 C.2          1    LIG   0.0000
   9 N9          -1.2389     2.0617     0.0249 N.pl3        1    LIG   0.0000
  10 C10         -0.0188     1.3749     0.0102 C.ar         1    LIG   0.0000
  11 C11         -0.0117    -0.0159     0.0027 C.ar         1    LIG   0.0000
  12 C12          1.2070    -0.6862    -0.0114 C.ar         1    LIG   0.0000
  13 C13          2.4051     0.0205    -0.0192 C.ar         1    LIG   0.0000
  14 C14          2.3922     1.4112    -0.0108 C.ar         1    LIG   0.0000
  15 C15          1.1759     2.0859     0.0031 C.ar         1    LIG   0.0000
  16 N16          1.1519     3.4853     0.0098 N.am         1    LIG   0.0000
  17 C17          1.7244     4.1852    -1.0195 C.2          1    LIG   0.0000
  18 O18          2.2464     3.5983    -1.9268 O.2          1    LIG   0.0000
  19 C19          1.6983     5.7049    -1.0122 C.3          1    LIG   0.0000
  20 C20          2.3953     6.2295    -2.2570 C.3          1    LIG   0.0000
  21 C21          2.3693     7.7502    -2.2497 C.2          1    LIG   0.0000
  22 C22          1.2967     8.4652    -2.8463 C.2          1    LIG   0.0000
  23 C23          0.1756     7.6672    -3.4941 C.3          1    LIG   0.0000
  24 N24          1.3078     9.7891    -2.8199 N.2          1    LIG   0.0000
  25 C25          2.3187    10.5147    -2.2364 C.2          1    LIG   0.0000
  26 C26          2.5885    11.8484    -2.0606 C.2          1    LIG   0.0000
  27 C27          1.9405    13.0644    -2.4104 C.2          1    LIG   0.0000
  28 C28          2.4775    14.2844    -2.0896 C.2          1    LIG   0.0000
  29 C29          3.7115    14.3727    -1.3916 C.2          1    LIG   0.0000
  30 C30          4.3568    13.2149    -1.0439 C.2          1    LIG   0.0000
  31 C31          3.8076    11.9463    -1.3719 C.2          1    LIG   0.0000
  32 N32          4.2166    10.7106    -1.1617 N.2          1    LIG   0.0000
  33 N33          3.3532     9.8473    -1.6619 N.pl3        1    LIG   0.0000
  34 C34          3.3768     8.4748    -1.6687 C.2          1    LIG   0.0000
  35 C35          4.5352     7.7303    -1.0230 C.3          1    LIG   0.0000
  36 N36         -1.3606     3.3703     0.0329 N.2          1    LIG   0.0000
  37 H           -2.4496     9.3051     0.0629 H            1    LIG   0.0000
  38 H           -1.4162     8.3290     0.8665 H            1    LIG   0.0000
  39 H           -1.4314     8.3344    -0.7664 H            1    LIG   0.0000
  40 H           -3.6051     7.3917     0.8838 H            1    LIG   0.0000
  41 H           -3.6204     7.3971    -0.7491 H            1    LIG   0.0000
  42 H           -4.3791     2.3734     0.0555 H            1    LIG   0.0000
  43 H           -2.6493     0.4827     0.0254 H            1    LIG   0.0000
  44 H           -0.8712    -0.5271     0.0073 H            1    LIG   0.0000
  45 H            1.2220    -1.6861    -0.0159 H            1    LIG   0.0000
  46 H            3.2757    -0.4714    -0.0309 H            1    LIG   0.0000
  47 H            3.2516     1.9226    -0.0148 H            1    LIG   0.0000
  48 H            0.7169     3.9744     0.7659 H            1    LIG   0.0000
  49 H            2.1710     6.0425    -0.1982 H            1    LIG   0.0000
  50 H            0.7500     6.0220    -1.0026 H            1    LIG   0.0000
  51 H            3.3437     5.9125    -2.2667 H            1    LIG   0.0000
  52 H            1.9226     5.8919    -3.0710 H            1    LIG   0.0000
  53 H            0.3655     6.6898    -3.4013 H            1    LIG   0.0000
  54 H           -0.6906     7.8827    -3.0432 H            1    LIG   0.0000
  55 H            0.1148     7.9044    -4.4636 H            1    LIG   0.0000
  56 H            1.0709    13.0290    -2.9029 H            1    LIG   0.0000
  57 H            1.9954    15.1210    -2.3497 H            1    LIG   0.0000
  58 H            4.1021    15.2632    -1.1584 H            1    LIG   0.0000
  59 H            5.2264    13.2636    -0.5525 H            1    LIG   0.0000
  60 H            4.3927     6.7451    -1.1183 H            1    LIG   0.0000
  61 H            5.3899     7.9886    -1.4733 H            1    LIG   0.0000
  62 H            4.5846     7.9677    -0.0528 H            1    LIG   0.0000
@<TRIPOS>BOND
   1        1        2 1
   2        2        3 1
   3        3        4 1
   4        4        5 2
   5        4        6 1
   6        6        7 1
   7        7        8 2
   8        8        9 1
   9        9       10 1
  10       10       11 ar
  11       11       12 ar
  12       12       13 ar
  13       13       14 ar
  14       14       15 ar
  15       15       10 ar
  16       15       16 1
  17       16       17 am
  18       17       18 2
  19       17       19 1
  20       19       20 1
  21       20       21 1
  22       21       22 1
  23       22       23 1
  24       22       24 2
  25       24       25 1
  26       25       26 2
  27       26       27 1
  28       27       28 2
  29       28       29 1
  30       29       30 2
  31       30       31 1
  32       31       26 1
  33       31       32 2
  34       32       33 1
  35       33       25 1
  36       33       34 1
  37       34       21 2
  38       34       35 1
  39        9       36 1
  40       36        6 2
  41        1       37 1
  42        1       38 1
  43        1       39 1
  44        2       40 1
  45        2       41 1
  46        7       42 1
  47        8       43 1
  48       11       44 1
  49       12       45 1
  50       13       46 1
  51       14       47 1
  52       16       48 1
  53       19       49 1
  54       19       50 1
  55       20       51 1
  56       20       52 1
  57       23       53 1
  58       23       54 1
  59       23       55 1
  60       27       56 1
  61       28       57 1
  62       29       58 1
  63       30       59 1
  64       35       60 1
  65       35       61 1
  66       35       62 1

@<TRIPOS>MOLECULE

  62   66
SMALL
USER_CHARGES
@<TRIPOS>ATOM
   1 C1          -6.4508     6.5658     0.0912 C.3          1    LIG   0.0000
   2 C2          -4.9313     6.5276     0.0768 C.3          1    LIG   0.0000
   3 O3          -4.4918     5.1774     0.0682 O.3          1    LIG   0.0000
   4 C4          -3.1930     5.0071     0.0555 C.2          1    LIG   0.0000
   5 O5          -2.4630     5.9596     0.0519 O.2          1    LIG   0.0000
   6 C6          -2.6373     3.6677     0.0459 C.2          1    LIG   0.0000
   7 C7          -3.3835     2.4668     0.0461 C.2          1    LIG   0.0000
   8 C8          -2.4632     1.4652     0.0310 C.2          1    LIG   0.0000
   9 N9          -1.2389     2.0617     0.0249 N.pl3        1    LIG   0.0000
  10 C10         -0.0188     1.3749     0.0102 C.ar         1    LIG   0.0000
  11 C11         -0.0117    -0.0159     0.0027 C.ar         1    LIG   0.0000
  12 C12          1.2070    -0.6862    -0.0114 C.ar         1    LIG   0.0000
  13 C13          2.4051     0.0205    -0.0192 C.ar         1    LIG   0.0000
  14 C14          2.3922     1.4112    -0.0108 C.ar         1    LIG   0.0000
  15 C15          1.1759     2.0859     0.0031 C.ar         1    LIG   0.0000
  16 N16          1.1519     3.4853     0.0098 N.am         1    LIG   0.0000
  17 C17          1.7244     4.1852    -1.0195 C.2          1    LIG   0.0000
  18 O18          1.7038     5.3850    -1.0138 O.2          1    LIG   0.0000
  19 C19          2.3856     3.4419    -2.1687 C.3          1    LIG   0.0000
  20 C20          2.9376     4.4440    -3.1694 C.3          1    LIG   0.0000
  21 C21          3.5992     3.7002    -4.3193 C.2          1    LIG   0.0000
  22 C22          2.8568     3.3277    -5.4716 C.2          1    LIG   0.0000
  23 C23          1.3811     3.6922    -5.5224 C.3          1    LIG   0.0000
  24 N24          3.4670     2.6817    -6.4534 N.2          1    LIG   0.0000
  25 C25          4.8000     2.3495    -6.4119 C.2          1    LIG   0.0000
  26 C26          5.6735     1.7065    -7.2521 C.2          1    LIG   0.0000
  27 C27          5.5789     1.0977    -8.5333 C.2          1    LIG   0.0000
  28 C28          6.6636     0.5125    -9.1339 C.2          1    LIG   0.0000
  29 C29          7.9285     0.4947    -8.4878 C.2          1    LIG   0.0000
  30 C30          8.0457     1.0739    -7.2515 C.2          1    LIG   0.0000
  31 C31          6.9273     1.6830    -6.6217 C.2          1    LIG   0.0000
  32 N32          6.7729     2.2931    -5.4631 N.2          1    LIG   0.0000
  33 N33          5.5253     2.6971    -5.3169 N.pl3        1    LIG   0.0000
  34 C34          4.9281     3.3681    -4.2790 C.2          1    LIG   0.0000
  35 C35          5.7429     3.7577    -3.0554 C.3          1    LIG   0.0000
  36 N36         -1.3606     3.3703     0.0329 N.2          1    LIG   0.0000
  37 H           -6.7603     7.5167     0.0972 H            1    LIG   0.0000
  38 H           -6.8034     6.1056    -0.7236 H            1    LIG   0.0000
  39 H           -6.7882     6.1002     0.9093 H            1    LIG   0.0000
  40 H           -4.5939     6.9932    -0.7413 H            1    LIG   0.0000
  41 H           -4.5786     6.9878     0.8916 H            1    LIG   0.0000
  42 H           -4.3791     2.3734     0.0555 H            1    LIG   0.0000
  43 H           -2.6493     0.4827     0.0254 H            1    LIG   0.0000
  44 H           -0.8712    -0.5271     0.0073 H            1    LIG   0.0000
  45 H            1.2220    -1.6861    -0.0159 H            1    LIG   0.0000
  46 H            3.2757    -0.4714    -0.0309 H            1    LIG   0.0000
  47 H            3.2516     1.9226    -0.0148 H            1    LIG   0.0000
  48 H            0.7169     3.9744     0.7659 H            1    LIG   0.0000
  49 H            1.7110     2.8574    -2.6197 H            1    LIG   0.0000
  50 H            3.1320     2.8780    -1.8154 H            1    LIG   0.0000
  51 H            2.1911     5.0079    -3.5228 H            1    LIG   0.0000
  52 H            3.6121     5.0284    -2.7184 H            1    LIG   0.0000
  53 H            1.1275     4.1735    -4.6834 H            1    LIG   0.0000
  54 H            1.2107     4.2837    -6.3105 H            1    LIG   0.0000
  55 H            0.8346     2.8589    -5.6068 H            1    LIG   0.0000
  56 H            4.6991     1.0963    -9.0085 H            1    LIG   0.0000
  57 H            6.5632     0.0937   -10.0364 H            1    LIG   0.0000
  58 H            8.7188     0.0674    -8.9271 H            1    LIG   0.0000
  59 H            8.9308     1.0678    -6.7861 H            1    LIG   0.0000
  60 H            5.1557     4.2358    -2.4023 H            1    LIG   0.0000
  61 H            6.1162     2.9345    -2.6276 H            1    LIG   0.0000
  62 H            6.4927     4.3589    -3.3318 H            1    LIG   0.0000
@<TRIPOS>BOND
   1        1        2 1
   2        2        3 1
   3        3        4 1
   4        4        5 2
   5        4        6 1
   6        6        7 1
   7        7        8 2
   8        8        9 1
   9        9       10 1
  10       10       11 ar
  11       11       12 ar
  12       12       13 ar
  13       13       14 ar
  14       14       15 ar
  15       15       10 ar
  16       15       16 1
  17       16       17 am
  18       17       18 2
  19       17       19 1
  20       19       20 1
  21       20       21 1
  22       21       22 1
  23       22       23 1
  24       22       24 2
  25       24       25 1
  26       25       26 2
  27       26       27 1
  28       27       28 2
  29       28       29 1
  30       29       30 2
  31       30       31 1
  32       31       26 1
  33       31       32 2
  34       32       33 1
  35       33       25 1
  36       33       34 1
  37       34       21 2
  38       34       35 1
  39        9       36 1
  40       36        6 2
  41        1       37 1
  42        1       38 1
  43        1       39 1
  44        2       40 1
  45        2       41 1
  46        7       42 1
  47        8       43 1
  48       11       44 1
  49       12       45 1
  50       13       46 1
  51       14       47 1
  52       16       48 1
  53       19       49 1
  54       19       50 1
  55       20       51 1
  56       20       52 1
  57       23       53 1
  58       23       54 1
  59       23       55 1
  60       27       56 1
  61       28       57 1
  62       29       58 1
  63       30       59 1
  64       35       60 1
  65       35       61 1
  66       35       62 1

@<TRIPOS>MOLECULE

  62   66
SMALL
USER_CHARGES
@<TRIPOS>ATOM
   1 C1          -1.9952     8.4143     0.0557 C.3          1    LIG   0.0000
   2 C2          -3.0414     7.3117     0.0618 C.3          1    LIG   0.0000
   3 O3          -2.3961     6.0469     0.0515 O.3          1    LIG   0.0000
   4 C4          -3.1930     5.0071     0.0555 C.2          1    LIG   0.0000
   5 O5          -4.3827     5.1631     0.0672 O.2          1    LIG   0.0000
   6 C6          -2.6373     3.6677     0.0459 C.2          1    LIG   0.0000
   7 C7          -3.3835     2.4668     0.0461 C.2          1    LIG   0.0000
   8 C8          -2.4632     1.4652     0.0310 C.2          1    LIG   0.0000
   9 N9          -1.2389     2.0617     0.0249 N.pl3        1    LIG   0.0000
  10 C10         -0.0188     1.3749     0.0102 C.ar         1    LIG   0.0000
  11 C11         -0.0117    -0.0159     0.0027 C.ar         1    LIG   0.0000
  12 C12          1.2070    -0.6862    -0.0114 C.ar         1    LIG   0.0000
  13 C13          2.4051     0.0205    -0.0192 C.ar         1    LIG   0.0000
  14 C14          2.3922     1.4112    -0.0108 C.ar         1    LIG   0.0000
  15 C15          1.1759     2.0859     0.0031 C.ar         1    LIG   0.0000
  16 N16          1.1519     3.4853     0.0098 N.am         1    LIG   0.0000
  17 C17          1.7244     4.1852    -1.0195 C.2          1    LIG   0.0000
  18 O18          1.7038     5.3850    -1.0138 O.2          1    LIG   0.0000
  19 C19          2.3856     3.4419    -2.1687 C.3          1    LIG   0.0000
  20 C20          2.9376     4.4440    -3.1694 C.3          1    LIG   0.0000
  21 C21          3.5992     3.7002    -4.3193 C.2          1    LIG   0.0000
  22 C22          2.8568     3.3277    -5.4716 C.2          1    LIG   0.0000
  23 C23          1.3811     3.6922    -5.5224 C.3          1    LIG   0.0000
  24 N24          3.4670     2.6817    -6.4534 N.2          1    LIG   0.0000
  25 C25          4.8000     2.3495    -6.4119 C.2          1    LIG   0.0000
  26 C26          5.6735     1.7065    -7.2521 C.2          1    LIG   0.0000
  27 C27          5.5789     1.0977    -8.5333 C.2          1    LIG   0.0000
  28 C28          6.6636     0.5125    -9.1339 C.2          1    LIG   0.0000
  29 C29          7.9285     0.4947    -8.4878 C.2          1    LIG   0.0000
  30 C30          8.0457     1.0739    -7.2515 C.2          1    LIG   0.0000
  31 C31          6.9273     1.6830    -6.6217 C.2          1    LIG   0.0000
  32 N32          6.7729     2.2931    -5.4631 N.2          1    LIG   0.0000
  33 N33          5.5253     2.6971    -5.3169 N.pl3        1    LIG   0.0000
  34 C34          4.9281     3.3681    -4.2790 C.2          1    LIG   0.0000
  35 C35          5.7429     3.7577    -3.0554 C.3          1    LIG   0.0000
  36 N36         -1.3606     3.3703     0.0329 N.2          1    LIG   0.0000
  37 H           -2.4496     9.3051     0.0629 H            1    LIG   0.0000
  38 H           -1.4162     8.3290     0.8665 H            1    LIG   0.0000
  39 H           -1.4314     8.3344    -0.7664 H            1    LIG   0.0000
  40 H           -3.6051     7.3917     0.8838 H            1    LIG   0.0000
  41 H           -3.6204     7.3971    -0.7491 H            1    LIG   0.0000
  42 H           -4.3791     2.3734     0.0555 H            1    LIG   0.0000
  43 H           -2.6493     0.4827     0.0254 H            1    LIG   0.0000
  44 H           -0.8712    -0.5271     0.0073 H            1    LIG   0.0000
  45 H            1.2220    -1.6861    -0.0159 H            1    LIG   0.0000
  46 H            3.2757    -0.4714    -0.0309 H            1    LIG   0.0000
  47 H            3.2516     1.9226    -0.0148 H            1    LIG   0.0000
  48 H            0.7169     3.9744     0.7659 H            1    LIG   0.0000
  49 H            1.7110     2.8574    -2.6197 H            1    LIG   0.0000
  50 H            3.1320     2.8780    -1.8154 H            1    LIG   0.0000
  51 H            2.1911     5.0079    -3.5228 H            1    LIG   0.0000
  52 H            3.6121     5.0284    -2.7184 H            1    LIG   0.0000
  53 H            1.1275     4.1735    -4.6834 H            1    LIG   0.0000
  54 H            1.2107     4.2837    -6.3105 H            1    LIG   0.0000
  55 H            0.8346     2.8589    -5.6068 H            1    LIG   0.0000
  56 H            4.6991     1.0963    -9.0085 H            1    LIG   0.0000
  57 H            6.5632     0.0937   -10.0364 H            1    LIG   0.0000
  58 H            8.7188     0.0674    -8.9271 H            1    LIG   0.0000
  59 H            8.9308     1.0678    -6.7861 H            1    LIG   0.0000
  60 H            5.1557     4.2358    -2.4023 H            1    LIG   0.0000
  61 H            6.1162     2.9345    -2.6276 H            1    LIG   0.0000
  62 H            6.4927     4.3589    -3.3318 H            1    LIG   0.0000
@<TRIPOS>BOND
   1        1        2 1
   2        2        3 1
   3        3        4 1
   4        4        5 2
   5        4        6 1
   6        6        7 1
   7        7        8 2
   8        8        9 1
   9        9       10 1
  10       10       11 ar
  11       11       12 ar
  12       12       13 ar
  13       13       14 ar
  14       14       15 ar
  15       15       10 ar
  16       15       16 1
  17       16       17 am
  18       17       18 2
  19       17       19 1
  20       19       20 1
  21       20       21 1
  22       21       22 1
  23       22       23 1
  24       22       24 2
  25       24       25 1
  26       25       26 2
  27       26       27 1
  28       27       28 2
  29       28       29 1
  30       29       30 2
  31       30       31 1
  32       31       26 1
  33       31       32 2
  34       32       33 1
  35       33       25 1
  36       33       34 1
  37       34       21 2
  38       34       35 1
  39        9       36 1
  40       36        6 2
  41        1       37 1
  42        1       38 1
  43        1       39 1
  44        2       40 1
  45        2       41 1
  46        7       42 1
  47        8       43 1
  48       11       44 1
  49       12       45 1
  50       13       46 1
  51       14       47 1
  52       16       48 1
  53       19       49 1
  54       19       50 1
  55       20       51 1
  56       20       52 1
  57       23       53 1
  58       23       54 1
  59       23       55 1
  60       27       56 1
  61       28       57 1
  62       29       58 1
  63       30       59 1
  64       35       60 1
  65       35       61 1
  66       35       62 1

@<TRIPOS>MOLECULE

  62   66
SMALL
USER_CHARGES
@<TRIPOS>ATOM
   1 C1          -6.4508     6.5658     0.0912 C.3          1    LIG   0.0000
   2 C2          -4.9313     6.5276     0.0768 C.3          1    LIG   0.0000
   3 O3          -4.4918     5.1774     0.0682 O.3          1    LIG   0.0000
   4 C4          -3.1930     5.0071     0.0555 C.2          1    LIG   0.0000
   5 O5          -2.4630     5.9596     0.0519 O.2          1    LIG   0.0000
   6 C6          -2.6373     3.6677     0.0459 C.2          1    LIG   0.0000
   7 C7          -3.3835     2.4668     0.0461 C.2          1    LIG   0.0000
   8 C8          -2.4632     1.4652     0.0310 C.2          1    LIG   0.0000
   9 N9          -1.2389     2.0617     0.0249 N.pl3        1    LIG   0.0000
  10 C10         -0.0188     1.3749     0.0102 C.ar         1    LIG   0.0000
  11 C11         -0.0117    -0.0159     0.0027 C.ar         1    LIG   0.0000
  12 C12          1.2070    -0.6862    -0.0114 C.ar         1    LIG   0.0000
  13 C13          2.4051     0.0205    -0.0192 C.ar         1    LIG   0.0000
  14 C14          2.3922     1.4112    -0.0108 C.ar         1    LIG   0.0000
  15 C15          1.1759     2.0859     0.0031 C.ar         1    LIG   0.0000
  16 N16          1.1519     3.4853     0.0098 N.am         1    LIG   0.0000
  17 C17          1.7244     4.1852    -1.0195 C.2          1    LIG   0.0000
  18 O18          1.7038     5.3850    -1.0138 O.2          1    LIG   0.0000
  19 C19          2.3856     3.4419    -2.1687 C.3          1    LIG   0.0000
  20 C20          2.9376     4.4440    -3.1694 C.3          1    LIG   0.0000
  21 C21          3.5992     3.7002    -4.3193 C.2          1    LIG   0.0000
  22 C22          4.9770     3.3583    -4.2715 C.2          1    LIG   0.0000
  23 C23          5.7726     3.7585    -3.0386 C.3          1    LIG   0.0000
  24 N24          5.5184     2.7098    -5.2913 N.2          1    LIG   0.0000
  25 C25          4.8039     2.3466    -6.4077 C.2          1    LIG   0.0000
  26 C26          5.0873     1.6892    -7.5782 C.2          1    LIG   0.0000
  27 C27          6.2478     1.0996    -8.1497 C.2          1    LIG   0.0000
  28 C28          6.2177     0.4993    -9.3820 C.2          1    LIG   0.0000
  29 C29          5.0141     0.4482   -10.1346 C.2          1    LIG   0.0000
  30 C30          3.8816     1.0103    -9.6063 C.2          1    LIG   0.0000
  31 C31          3.9033     1.6342    -8.3300 C.2          1    LIG   0.0000
  32 N32          2.9776     2.2383    -7.6113 N.2          1    LIG   0.0000
  33 N33          3.4850     2.6664    -6.4710 N.pl3        1    LIG   0.0000
  34 C34          2.8880     3.3379    -5.4332 C.2          1    LIG   0.0000
  35 C35          1.4109     3.6928    -5.5059 C.3          1    LIG   0.0000
  36 N36         -1.3606     3.3703     0.0329 N.2          1    LIG   0.0000
  37 H           -6.7603     7.5167     0.0972 H            1    LIG   0.0000
  38 H           -6.8034     6.1056    -0.7236 H            1    LIG   0.0000
  39 H           -6.7882     6.1002     0.9093 H            1    LIG   0.0000
  40 H           -4.5939     6.9932    -0.7413 H            1    LIG   0.0000
  41 H           -4.5786     6.9878     0.8916 H            1    LIG   0.0000
  42 H           -4.3791     2.3734     0.0555 H            1    LIG   0.0000
  43 H           -2.6493     0.4827     0.0254 H            1    LIG   0.0000
  44 H           -0.8712    -0.5271     0.0073 H            1    LIG   0.0000
  45 H            1.2220    -1.6861    -0.0159 H            1    LIG   0.0000
  46 H            3.2757    -0.4714    -0.0309 H            1    LIG   0.0000
  47 H            3.2516     1.9226    -0.0148 H            1    LIG   0.0000
  48 H            0.7169     3.9744     0.7659 H            1    LIG   0.0000
  49 H            1.7110     2.8574    -2.6197 H            1    LIG   0.0000
  50 H            3.1320     2.8780    -1.8154 H            1    LIG   0.0000
  51 H            2.1911     5.0079    -3.5228 H            1    LIG   0.0000
  52 H            3.6121     5.0284    -2.7184 H            1    LIG   0.0000
  53 H            5.1735     4.2357    -2.3956 H            1    LIG   0.0000
  54 H            6.1452     2.9396    -2.6021 H            1    LIG   0.0000
  55 H            6.5222     4.3633    -3.3074 H            1    LIG   0.0000
  56 H            7.1078     1.1233    -7.6400 H            1    LIG   0.0000
  57 H            7.0519     0.0931    -9.7549 H            1    LIG   0.0000
  58 H            4.9936     0.0101   -11.0333 H            1    LIG   0.0000
  59 H            3.0279     0.9811   -10.1263 H            1    LIG   0.0000
  60 H            1.1428     4.1762    -4.6725 H            1    LIG   0.0000
  61 H            1.2477     4.2798    -6.2988 H            1    LIG   0.0000
  62 H            0.8709     2.8557    -5.5941 H            1    LIG   0.0000
@<TRIPOS>BOND
   1        1        2 1
   2        2        3 1
   3        3        4 1
   4        4        5 2
   5        4        6 1
   6        6        7 1
   7        7        8 2
   8        8        9 1
   9        9       10 1
  10       10       11 ar
  11       11       12 ar
  12       12       13 ar
  13       13       14 ar
  14       14       15 ar
  15       15       10 ar
  16       15       16 1
  17       16       17 am
  18       17       18 2
  19       17       19 1
  20       19       20 1
  21       20       21 1
  22       21       22 1
  23       22       23 1
  24       22       24 2
  25       24       25 1
  26       25       26 2
  27       26       27 1
  28       27       28 2
  29       28       29 1
  30       29       30 2
  31       30       31 1
  32       31       26 1
  33       31       32 2
  34       32       33 1
  35       33       25 1
  36       33       34 1
  37       34       21 2
  38       34       35 1
  39        9       36 1
  40       36        6 2
  41        1       37 1
  42        1       38 1
  43        1       39 1
  44        2       40 1
  45        2       41 1
  46        7       42 1
  47        8       43 1
  48       11       44 1
  49       12       45 1
  50       13       46 1
  51       14       47 1
  52       16       48 1
  53       19       49 1
  54       19       50 1
  55       20       51 1
  56       20       52 1
  57       23       53 1
  58       23       54 1
  59       23       55 1
  60       27       56 1
  61       28       57 1
  62       29       58 1
  63       30       59 1
  64       35       60 1
  65       35       61 1
  66       35       62 1

@<TRIPOS>MOLECULE

  62   66
SMALL
USER_CHARGES
@<TRIPOS>ATOM
   1 C1          -1.9952     8.4143     0.0557 C.3          1    LIG   0.0000
   2 C2          -3.0414     7.3117     0.0618 C.3          1    LIG   0.0000
   3 O3          -2.3961     6.0469     0.0515 O.3          1    LIG   0.0000
   4 C4          -3.1930     5.0071     0.0555 C.2          1    LIG   0.0000
   5 O5          -4.3827     5.1631     0.0672 O.2          1    LIG   0.0000
   6 C6          -2.6373     3.6677     0.0459 C.2          1    LIG   0.0000
   7 C7          -3.3835     2.4668     0.0461 C.2          1    LIG   0.0000
   8 C8          -2.4632     1.4652     0.0310 C.2          1    LIG   0.0000
   9 N9          -1.2389     2.0617     0.0249 N.pl3        1    LIG   0.0000
  10 C10         -0.0188     1.3749     0.0102 C.ar         1    LIG   0.0000
  11 C11         -0.0117    -0.0159     0.0027 C.ar         1    LIG   0.0000
  12 C12          1.2070    -0.6862    -0.0114 C.ar         1    LIG   0.0000
  13 C13          2.4051     0.0205    -0.0192 C.ar         1    LIG   0.0000
  14 C14          2.3922     1.4112    -0.0108 C.ar         1    LIG   0.0000
  15 C15          1.1759     2.0859     0.0031 C.ar         1    LIG   0.0000
  16 N16          1.1519     3.4853     0.0098 N.am         1    LIG   0.0000
  17 C17          1.7244     4.1852    -1.0195 C.2          1    LIG   0.0000
  18 O18          1.7038     5.3850    -1.0138 O.2          1    LIG   0.0000
  19 C19          2.3856     3.4419    -2.1687 C.3          1    LIG   0.0000
  20 C20          2.9376     4.4440    -3.1694 C.3          1    LIG   0.0000
  21 C21          3.5992     3.7002    -4.3193 C.2          1    LIG   0.0000
  22 C22          4.9770     3.3583    -4.2715 C.2          1    LIG   0.0000
  23 C23          5.7726     3.7585    -3.0386 C.3          1    LIG   0.0000
  24 N24          5.5184     2.7098    -5.2913 N.2          1    LIG   0.0000
  25 C25          4.8039     2.3466    -6.4077 C.2          1    LIG   0.0000
  26 C26          5.0873     1.6892    -7.5782 C.2          1    LIG   0.0000
  27 C27          6.2478     1.0996    -8.1497 C.2          1    LIG   0.0000
  28 C28          6.2177     0.4993    -9.3820 C.2          1    LIG   0.0000
  29 C29          5.0141     0.4482   -10.1346 C.2          1    LIG   0.0000
  30 C30          3.8816     1.0103    -9.6063 C.2          1    LIG   0.0000
  31 C31          3.9033     1.6342    -8.3300 C.2          1    LIG   0.0000
  32 N32          2.9776     2.2383    -7.6113 N.2          1    LIG   0.0000
  33 N33          3.4850     2.6664    -6.4710 N.pl3        1    LIG   0.0000
  34 C34          2.8880     3.3379    -5.4332 C.2          1    LIG   0.0000
  35 C35          1.4109     3.6928    -5.5059 C.3          1    LIG   0.0000
  36 N36         -1.3606     3.3703     0.0329 N.2          1    LIG   0.0000
  37 H           -2.4496     9.3051     0.0629 H            1    LIG   0.0000
  38 H           -1.4162     8.3290     0.8665 H            1    LIG   0.0000
  39 H           -1.4314     8.3344    -0.7664 H            1    LIG   0.0000
  40 H           -3.6051     7.3917     0.8838 H            1    LIG   0.0000
  41 H           -3.6204     7.3971    -0.7491 H            1    LIG   0.0000
  42 H           -4.3791     2.3734     0.0555 H            1    LIG   0.0000
  43 H           -2.6493     0.4827     0.0254 H            1    LIG   0.0000
  44 H           -0.8712    -0.5271     0.0073 H            1    LIG   0.0000
  45 H            1.2220    -1.6861    -0.0159 H            1    LIG   0.0000
  46 H            3.2757    -0.4714    -0.0309 H            1    LIG   0.0000
  47 H            3.2516     1.9226    -0.0148 H            1    LIG   0.0000
  48 H            0.7169     3.9744     0.7659 H            1    LIG   0.0000
  49 H            1.7110     2.8574    -2.6197 H            1    LIG   0.0000
  50 H            3.1320     2.8780    -1.8154 H            1    LIG   0.0000
  51 H            2.1911     5.0079    -3.5228 H            1    LIG   0.0000
  52 H            3.6121     5.0284    -2.7184 H            1    LIG   0.0000
  53 H            5.1735     4.2357    -2.3956 H            1    LIG   0.0000
  54 H            6.1452     2.9396    -2.6021 H            1    LIG   0.0000
  55 H            6.5222     4.3633    -3.3074 H            1    LIG   0.0000
  56 H            7.1078     1.1233    -7.6400 H            1    LIG   0.0000
  57 H            7.0519     0.0931    -9.7549 H            1    LIG   0.0000
  58 H            4.9936     0.0101   -11.0333 H            1    LIG   0.0000
  59 H            3.0279     0.9811   -10.1263 H            1    LIG   0.0000
  60 H            1.1428     4.1762    -4.6725 H            1    LIG   0.0000
  61 H            1.2477     4.2798    -6.2988 H            1    LIG   0.0000
  62 H            0.8709     2.8557    -5.5941 H            1    LIG   0.0000
@<TRIPOS>BOND
   1        1        2 1
   2        2        3 1
   3        3        4 1
   4        4        5 2
   5        4        6 1
   6        6        7 1
   7        7        8 2
   8        8        9 1
   9        9       10 1
  10       10       11 ar
  11       11       12 ar
  12       12       13 ar
  13       13       14 ar
  14       14       15 ar
  15       15       10 ar
  16       15       16 1
  17       16       17 am
  18       17       18 2
  19       17       19 1
  20       19       20 1
  21       20       21 1
  22       21       22 1
  23       22       23 1
  24       22       24 2
  25       24       25 1
  26       25       26 2
  27       26       27 1
  28       27       28 2
  29       28       29 1
  30       29       30 2
  31       30       31 1
  32       31       26 1
  33       31       32 2
  34       32       33 1
  35       33       25 1
  36       33       34 1
  37       34       21 2
  38       34       35 1
  39        9       36 1
  40       36        6 2
  41        1       37 1
  42        1       38 1
  43        1       39 1
  44        2       40 1
  45        2       41 1
  46        7       42 1
  47        8       43 1
  48       11       44 1
  49       12       45 1
  50       13       46 1
  51       14       47 1
  52       16       48 1
  53       19       49 1
  54       19       50 1
  55       20       51 1
  56       20       52 1
  57       23       53 1
  58       23       54 1
  59       23       55 1
  60       27       56 1
  61       28       57 1
  62       29       58 1
  63       30       59 1
  64       35       60 1
  65       35       61 1
  66       35       62 1

@<TRIPOS>MOLECULE

  62   66
SMALL
USER_CHARGES
@<TRIPOS>ATOM
   1 C1          -6.4508     6.5658     0.0912 C.3          1    LIG   0.0000
   2 C2          -4.9313     6.5276     0.0768 C.3          1    LIG   0.0000
   3 O3          -4.4918     5.1774     0.0682 O.3          1    LIG   0.0000
   4 C4          -3.1930     5.0071     0.0555 C.2          1    LIG   0.0000
   5 O5          -2.4630     5.9596     0.0519 O.2          1    LIG   0.0000
   6 C6          -2.6373     3.6677     0.0459 C.2          1    LIG   0.0000
   7 C7          -3.3835     2.4668     0.0461 C.2          1    LIG   0.0000
   8 C8          -2.4632     1.4652     0.0310 C.2          1    LIG   0.0000
   9 N9          -1.2389     2.0617     0.0249 N.pl3        1    LIG   0.0000
  10 C10         -0.0188     1.3749     0.0102 C.ar         1    LIG   0.0000
  11 C11         -0.0117    -0.0159     0.0027 C.ar         1    LIG   0.0000
  12 C12          1.2070    -0.6862    -0.0114 C.ar         1    LIG   0.0000
  13 C13          2.4051     0.0205    -0.0192 C.ar         1    LIG   0.0000
  14 C14          2.3922     1.4112    -0.0108 C.ar         1    LIG   0.0000
  15 C15          1.1759     2.0859     0.0031 C.ar         1    LIG   0.0000
  16 N16          1.1519     3.4853     0.0098 N.am         1    LIG   0.0000
  17 C17          0.5381     4.1648    -1.0093 C.2          1    LIG   0.0000
  18 O18          0.5176     5.3646    -1.0036 O.2          1    LIG   0.0000
  19 C19         -0.1168     3.3989    -2.1472 C.3          1    LIG   0.0000
  20 C20         -0.7199     4.3812    -3.1381 C.3          1    LIG   0.0000
  21 C21         -1.3752     3.6148    -4.2766 C.2          1    LIG   0.0000
  22 C22         -2.7394     3.2258    -4.2053 C.2          1    LIG   0.0000
  23 C23         -3.5262     3.5959    -2.9574 C.3          1    LIG   0.0000
  24 N24         -3.2761     2.5603    -5.2166 N.2          1    LIG   0.0000
  25 C25         -2.5693     2.2230    -6.3460 C.2          1    LIG   0.0000
  26 C26         -2.8518     1.5616    -7.5144 C.2          1    LIG   0.0000
  27 C27         -4.0006     0.9313    -8.0656 C.2          1    LIG   0.0000
  28 C28         -3.9708     0.3310    -9.2979 C.2          1    LIG   0.0000
  29 C29         -2.7785     0.3187   -10.0699 C.2          1    LIG   0.0000
  30 C30         -1.6568     0.9186    -9.5605 C.2          1    LIG   0.0000
  31 C31         -1.6786     1.5434    -8.2846 C.2          1    LIG   0.0000
  32 N32         -0.7604     2.1741    -7.5792 N.2          1    LIG   0.0000
  33 N33         -1.2629     2.5861    -6.4309 N.pl3        1    LIG   0.0000
  34 C34         -0.6714     3.2775    -5.4031 C.2          1    LIG   0.0000
  35 C35          0.7906     3.6845    -5.5017 C.3          1    LIG   0.0000
  36 N36         -1.3606     3.3703     0.0329 N.2          1    LIG   0.0000
  37 H           -6.7603     7.5167     0.0972 H            1    LIG   0.0000
  38 H           -6.8034     6.1056    -0.7236 H            1    LIG   0.0000
  39 H           -6.7882     6.1002     0.9093 H            1    LIG   0.0000
  40 H           -4.5939     6.9932    -0.7413 H            1    LIG   0.0000
  41 H           -4.5786     6.9878     0.8916 H            1    LIG   0.0000
  42 H           -4.3791     2.3734     0.0555 H            1    LIG   0.0000
  43 H           -2.6493     0.4827     0.0254 H            1    LIG   0.0000
  44 H           -0.8712    -0.5271     0.0073 H            1    LIG   0.0000
  45 H            1.2220    -1.6861    -0.0159 H            1    LIG   0.0000
  46 H            3.2757    -0.4714    -0.0309 H            1    LIG   0.0000
  47 H            3.2516     1.9226    -0.0148 H            1    LIG   0.0000
  48 H            1.5828     3.9892     0.7584 H            1    LIG   0.0000
  49 H           -0.8372     2.8098    -1.7813 H            1    LIG   0.0000
  50 H            0.5697     2.8378    -2.6099 H            1    LIG   0.0000
  51 H           -1.4063     4.9422    -2.6754 H            1    LIG   0.0000
  52 H            0.0006     4.9702    -3.5040 H            1    LIG   0.0000
  53 H           -2.9326     4.0927    -2.3243 H            1    LIG   0.0000
  54 H           -4.3012     4.1745    -3.2113 H            1    LIG   0.0000
  55 H           -3.8619     2.7637    -2.5160 H            1    LIG   0.0000
  56 H           -4.8521     0.9257    -7.5413 H            1    LIG   0.0000
  57 H           -4.7971    -0.1028    -9.6570 H            1    LIG   0.0000
  58 H           -2.7582    -0.1195   -10.9685 H            1    LIG   0.0000
  59 H           -0.8110     0.9166   -10.0941 H            1    LIG   0.0000
  60 H            1.0564     4.1764    -4.6726 H            1    LIG   0.0000
  61 H            1.3582     2.8671    -5.6008 H            1    LIG   0.0000
  62 H            0.9187     4.2775    -6.2966 H            1    LIG   0.0000
@<TRIPOS>BOND
   1        1        2 1
   2        2        3 1
   3        3        4 1
   4        4        5 2
   5        4        6 1
   6        6        7 1
   7        7        8 2
   8        8        9 1
   9        9       10 1
  10       10       11 ar
  11       11       12 ar
  12       12       13 ar
  13       13       14 ar
  14       14       15 ar
  15       15       10 ar
  16       15       16 1
  17       16       17 am
  18       17       18 2
  19       17       19 1
  20       19       20 1
  21       20       21 1
  22       21       22 1
  23       22       23 1
  24       22       24 2
  25       24       25 1
  26       25       26 2
  27       26       27 1
  28       27       28 2
  29       28       29 1
  30       29       30 2
  31       30       31 1
  32       31       26 1
  33       31       32 2
  34       32       33 1
  35       33       25 1
  36       33       34 1
  37       34       21 2
  38       34       35 1
  39        9       36 1
  40       36        6 2
  41        1       37 1
  42        1       38 1
  43        1       39 1
  44        2       40 1
  45        2       41 1
  46        7       42 1
  47        8       43 1
  48       11       44 1
  49       12       45 1
  50       13       46 1
  51       14       47 1
  52       16       48 1
  53       19       49 1
  54       19       50 1
  55       20       51 1
  56       20       52 1
  57       23       53 1
  58       23       54 1
  59       23       55 1
  60       27       56 1
  61       28       57 1
  62       29       58 1
  63       30       59 1
  64       35       60 1
  65       35       61 1
  66       35       62 1

@<TRIPOS>MOLECULE

  62   66
SMALL
USER_CHARGES
@<TRIPOS>ATOM
   1 C1          -1.9952     8.4143     0.0557 C.3          1    LIG   0.0000
   2 C2          -3.0414     7.3117     0.0618 C.3          1    LIG   0.0000
   3 O3          -2.3961     6.0469     0.0515 O.3          1    LIG   0.0000
   4 C4          -3.1930     5.0071     0.0555 C.2          1    LIG   0.0000
   5 O5          -4.3827     5.1631     0.0672 O.2          1    LIG   0.0000
   6 C6          -2.6373     3.6677     0.0459 C.2          1    LIG   0.0000
   7 C7          -3.3835     2.4668     0.0461 C.2          1    LIG   0.0000
   8 C8          -2.4632     1.4652     0.0310 C.2          1    LIG   0.0000
   9 N9          -1.2389     2.0617     0.0249 N.pl3        1    LIG   0.0000
  10 C10         -0.0188     1.3749     0.0102 C.ar         1    LIG   0.0000
  11 C11         -0.0117    -0.0159     0.0027 C.ar         1    LIG   0.0000
  12 C12          1.2070    -0.6862    -0.0114 C.ar         1    LIG   0.0000
  13 C13          2.4051     0.0205    -0.0192 C.ar         1    LIG   0.0000
  14 C14          2.3922     1.4112    -0.0108 C.ar         1    LIG   0.0000
  15 C15          1.1759     2.0859     0.0031 C.ar         1    LIG   0.0000
  16 N16          1.1519     3.4853     0.0098 N.am         1    LIG   0.0000
  17 C17          0.5381     4.1648    -1.0093 C.2          1    LIG   0.0000
  18 O18          0.5176     5.3646    -1.0036 O.2          1    LIG   0.0000
  19 C19         -0.1168     3.3989    -2.1472 C.3          1    LIG   0.0000
  20 C20         -0.7199     4.3812    -3.1381 C.3          1    LIG   0.0000
  21 C21         -1.3752     3.6148    -4.2766 C.2          1    LIG   0.0000
  22 C22         -2.7394     3.2258    -4.2053 C.2          1    LIG   0.0000
  23 C23         -3.5262     3.5959    -2.9574 C.3          1    LIG   0.0000
  24 N24         -3.2761     2.5603    -5.2166 N.2          1    LIG   0.0000
  25 C25         -2.5693     2.2230    -6.3460 C.2          1    LIG   0.0000
  26 C26         -2.8518     1.5616    -7.5144 C.2          1    LIG   0.0000
  27 C27         -4.0006     0.9313    -8.0656 C.2          1    LIG   0.0000
  28 C28         -3.9708     0.3310    -9.2979 C.2          1    LIG   0.0000
  29 C29         -2.7785     0.3187   -10.0699 C.2          1    LIG   0.0000
  30 C30         -1.6568     0.9186    -9.5605 C.2          1    LIG   0.0000
  31 C31         -1.6786     1.5434    -8.2846 C.2          1    LIG   0.0000
  32 N32         -0.7604     2.1741    -7.5792 N.2          1    LIG   0.0000
  33 N33         -1.2629     2.5861    -6.4309 N.pl3        1    LIG   0.0000
  34 C34         -0.6714     3.2775    -5.4031 C.2          1    LIG   0.0000
  35 C35          0.7906     3.6845    -5.5017 C.3          1    LIG   0.0000
  36 N36         -1.3606     3.3703     0.0329 N.2          1    LIG   0.0000
  37 H           -2.4496     9.3051     0.0629 H            1    LIG   0.0000
  38 H           -1.4162     8.3290     0.8665 H            1    LIG   0.0000
  39 H           -1.4314     8.3344    -0.7664 H            1    LIG   0.0000
  40 H           -3.6051     7.3917     0.8838 H            1    LIG   0.0000
  41 H           -3.6204     7.3971    -0.7491 H            1    LIG   0.0000
  42 H           -4.3791     2.3734     0.0555 H            1    LIG   0.0000
  43 H           -2.6493     0.4827     0.0254 H            1    LIG   0.0000
  44 H           -0.8712    -0.5271     0.0073 H            1    LIG   0.0000
  45 H            1.2220    -1.6861    -0.0159 H            1    LIG   0.0000
  46 H            3.2757    -0.4714    -0.0309 H            1    LIG   0.0000
  47 H            3.2516     1.9226    -0.0148 H            1    LIG   0.0000
  48 H            1.5828     3.9892     0.7584 H            1    LIG   0.0000
  49 H           -0.8372     2.8098    -1.7813 H            1    LIG   0.0000
  50 H            0.5697     2.8378    -2.6099 H            1    LIG   0.0000
  51 H           -1.4063     4.9422    -2.6754 H            1    LIG   0.0000
  52 H            0.0006     4.9702    -3.5040 H            1    LIG   0.0000
  53 H           -2.9326     4.0927    -2.3243 H            1    LIG   0.0000
  54 H           -4.3012     4.1745    -3.2113 H            1    LIG   0.0000
  55 H           -3.8619     2.7637    -2.5160 H            1    LIG   0.0000
  56 H           -4.8521     0.9257    -7.5413 H            1    LIG   0.0000
  57 H           -4.7971    -0.1028    -9.6570 H            1    LIG   0.0000
  58 H           -2.7582    -0.1195   -10.9685 H            1    LIG   0.0000
  59 H           -0.8110     0.9166   -10.0941 H            1    LIG   0.0000
  60 H            1.0564     4.1764    -4.6726 H            1    LIG   0.0000
  61 H            1.3582     2.8671    -5.6008 H            1    LIG   0.0000
  62 H            0.9187     4.2775    -6.2966 H            1    LIG   0.0000
@<TRIPOS>BOND
   1        1        2 1
   2        2        3 1
   3        3        4 1
   4        4        5 2
   5        4        6 1
   6        6        7 1
   7        7        8 2
   8        8        9 1
   9        9       10 1
  10       10       11 ar
  11       11       12 ar
  12       12       13 ar
  13       13       14 ar
  14       14       15 ar
  15       15       10 ar
  16       15       16 1
  17       16       17 am
  18       17       18 2
  19       17       19 1
  20       19       20 1
  21       20       21 1
  22       21       22 1
  23       22       23 1
  24       22       24 2
  25       24       25 1
  26       25       26 2
  27       26       27 1
  28       27       28 2
  29       28       29 1
  30       29       30 2
  31       30       31 1
  32       31       26 1
  33       31       32 2
  34       32       33 1
  35       33       25 1
  36       33       34 1
  37       34       21 2
  38       34       35 1
  39        9       36 1
  40       36        6 2
  41        1       37 1
  42        1       38 1
  43        1       39 1
  44        2       40 1
  45        2       41 1
  46        7       42 1
  47        8       43 1
  48       11       44 1
  49       12       45 1
  50       13       46 1
  51       14       47 1
  52       16       48 1
  53       19       49 1
  54       19       50 1
  55       20       51 1
  56       20       52 1
  57       23       53 1
  58       23       54 1
  59       23       55 1
  60       27       56 1
  61       28       57 1
  62       29       58 1
  63       30       59 1
  64       35       60 1
  65       35       61 1
  66       35       62 1

@<TRIPOS>MOLECULE

  62   66
SMALL
USER_CHARGES
@<TRIPOS>ATOM
   1 C1          -6.4508     6.5658     0.0912 C.3          1    LIG   0.0000
   2 C2          -4.9313     6.5276     0.0768 C.3          1    LIG   0.0000
   3 O3          -4.4918     5.1774     0.0682 O.3          1    LIG   0.0000
   4 C4          -3.1930     5.0071     0.0555 C.2          1    LIG   0.0000
   5 O5          -2.4630     5.9596     0.0519 O.2          1    LIG   0.0000
   6 C6          -2.6373     3.6677     0.0459 C.2          1    LIG   0.0000
   7 C7          -3.3835     2.4668     0.0461 C.2          1    LIG   0.0000
   8 C8          -2.4632     1.4652     0.0310 C.2          1    LIG   0.0000
   9 N9          -1.2389     2.0617     0.0249 N.pl3        1    LIG   0.0000
  10 C10         -0.0188     1.3749     0.0102 C.ar         1    LIG   0.0000
  11 C11         -0.0117    -0.0159     0.0027 C.ar         1    LIG   0.0000
  12 C12          1.2070    -0.6862    -0.0114 C.ar         1    LIG   0.0000
  13 C13          2.4051     0.0205    -0.0192 C.ar         1    LIG   0.0000
  14 C14          2.3922     1.4112    -0.0108 C.ar         1    LIG   0.0000
  15 C15          1.1759     2.0859     0.0031 C.ar         1    LIG   0.0000
  16 N16          1.1519     3.4853     0.0098 N.am         1    LIG   0.0000
  17 C17          0.5381     4.1648    -1.0093 C.2          1    LIG   0.0000
  18 O18          0.5176     5.3646    -1.0036 O.2          1    LIG   0.0000
  19 C19         -0.1168     3.3989    -2.1472 C.3          1    LIG   0.0000
  20 C20         -0.7199     4.3812    -3.1381 C.3          1    LIG   0.0000
  21 C21         -1.3752     3.6148    -4.2766 C.2          1    LIG   0.0000
  22 C22         -0.6403     3.2677    -5.4416 C.2          1    LIG   0.0000
  23 C23          0.8200     3.6854    -5.5190 C.3          1    LIG   0.0000
  24 N24         -1.2443     2.5992    -6.4122 N.2          1    LIG   0.0000
  25 C25         -2.5637     2.2201    -6.3472 C.2          1    LIG   0.0000
  26 C26         -3.4271     1.5413    -7.1697 C.2          1    LIG   0.0000
  27 C27         -3.3340     0.9368    -8.4530 C.2          1    LIG   0.0000
  28 C28         -4.4084     0.3156    -9.0356 C.2          1    LIG   0.0000
  29 C29         -5.6614     0.2568    -8.3691 C.2          1    LIG   0.0000
  30 C30         -5.7775     0.8330    -7.1312 C.2          1    LIG   0.0000
  31 C31         -4.6695     1.4786    -6.5197 C.2          1    LIG   0.0000
  32 N32         -4.5178     2.0991    -5.3662 N.2          1    LIG   0.0000
  33 N33         -3.2822     2.5446    -5.2408 N.pl3        1    LIG   0.0000
  34 C34         -2.6908     3.2365    -4.2133 C.2          1    LIG   0.0000
  35 C35         -3.4969     3.5966    -2.9750 C.3          1    LIG   0.0000
  36 N36         -1.3606     3.3703     0.0329 N.2          1    LIG   0.0000
  37 H           -6.7603     7.5167     0.0972 H            1    LIG   0.0000
  38 H           -6.8034     6.1056    -0.7236 H            1    LIG   0.0000
  39 H           -6.7882     6.1002     0.9093 H            1    LIG   0.0000
  40 H           -4.5939     6.9932    -0.7413 H            1    LIG   0.0000
  41 H           -4.5786     6.9878     0.8916 H            1    LIG   0.0000
  42 H           -4.3791     2.3734     0.0555 H            1    LIG   0.0000
  43 H           -2.6493     0.4827     0.0254 H            1    LIG   0.0000
  44 H           -0.8712    -0.5271     0.0073 H            1    LIG   0.0000
  45 H            1.2220    -1.6861    -0.0159 H            1    LIG   0.0000
  46 H            3.2757    -0.4714    -0.0309 H            1    LIG   0.0000
  47 H            3.2516     1.9226    -0.0148 H            1    LIG   0.0000
  48 H            1.5828     3.9892     0.7584 H            1    LIG   0.0000
  49 H           -0.8372     2.8098    -1.7813 H            1    LIG   0.0000
  50 H            0.5697     2.8378    -2.6099 H            1    LIG   0.0000
  51 H           -1.4063     4.9422    -2.6754 H            1    LIG   0.0000
  52 H            0.0006     4.9702    -3.5040 H            1    LIG   0.0000
  53 H            1.0710     4.1763    -4.6847 H            1    LIG   0.0000
  54 H            1.3947     2.8725    -5.6132 H            1    LIG   0.0000
  55 H            0.9545     4.2822    -6.3101 H            1    LIG   0.0000
  56 H           -2.4629     0.9655    -8.9432 H            1    LIG   0.0000
  57 H           -4.3089    -0.1007    -9.9394 H            1    LIG   0.0000
  58 H           -6.4442    -0.1966    -8.7953 H            1    LIG   0.0000
  59 H           -6.6544     0.7986    -6.6517 H            1    LIG   0.0000
  60 H           -2.9156     4.0955    -2.3322 H            1    LIG   0.0000
  61 H           -4.2726     4.1706    -3.2375 H            1    LIG   0.0000
  62 H           -3.8327     2.7606    -2.5411 H            1    LIG   0.0000
@<TRIPOS>BOND
   1        1        2 1
   2        2        3 1
   3        3        4 1
   4        4        5 2
   5        4        6 1
   6        6        7 1
   7        7        8 2
   8        8        9 1
   9        9       10 1
  10       10       11 ar
  11       11       12 ar
  12       12       13 ar
  13       13       14 ar
  14       14       15 ar
  15       15       10 ar
  16       15       16 1
  17       16       17 am
  18       17       18 2
  19       17       19 1
  20       19       20 1
  21       20       21 1
  22       21       22 1
  23       22       23 1
  24       22       24 2
  25       24       25 1
  26       25       26 2
  27       26       27 1
  28       27       28 2
  29       28       29 1
  30       29       30 2
  31       30       31 1
  32       31       26 1
  33       31       32 2
  34       32       33 1
  35       33       25 1
  36       33       34 1
  37       34       21 2
  38       34       35 1
  39        9       36 1
  40       36        6 2
  41        1       37 1
  42        1       38 1
  43        1       39 1
  44        2       40 1
  45        2       41 1
  46        7       42 1
  47        8       43 1
  48       11       44 1
  49       12       45 1
  50       13       46 1
  51       14       47 1
  52       16       48 1
  53       19       49 1
  54       19       50 1
  55       20       51 1
  56       20       52 1
  57       23       53 1
  58       23       54 1
  59       23       55 1
  60       27       56 1
  61       28       57 1
  62       29       58 1
  63       30       59 1
  64       35       60 1
  65       35       61 1
  66       35       62 1

@<TRIPOS>MOLECULE

  62   66
SMALL
USER_CHARGES
@<TRIPOS>ATOM
   1 C1          -1.9952     8.4143     0.0557 C.3          1    LIG   0.0000
   2 C2          -3.0414     7.3117     0.0618 C.3          1    LIG   0.0000
   3 O3          -2.3961     6.0469     0.0515 O.3          1    LIG   0.0000
   4 C4          -3.1930     5.0071     0.0555 C.2          1    LIG   0.0000
   5 O5          -4.3827     5.1631     0.0672 O.2          1    LIG   0.0000
   6 C6          -2.6373     3.6677     0.0459 C.2          1    LIG   0.0000
   7 C7          -3.3835     2.4668     0.0461 C.2          1    LIG   0.0000
   8 C8          -2.4632     1.4652     0.0310 C.2          1    LIG   0.0000
   9 N9          -1.2389     2.0617     0.0249 N.pl3        1    LIG   0.0000
  10 C10         -0.0188     1.3749     0.0102 C.ar         1    LIG   0.0000
  11 C11         -0.0117    -0.0159     0.0027 C.ar         1    LIG   0.0000
  12 C12          1.2070    -0.6862    -0.0114 C.ar         1    LIG   0.0000
  13 C13          2.4051     0.0205    -0.0192 C.ar         1    LIG   0.0000
  14 C14          2.3922     1.4112    -0.0108 C.ar         1    LIG   0.0000
  15 C15          1.1759     2.0859     0.0031 C.ar         1    LIG   0.0000
  16 N16          1.1519     3.4853     0.0098 N.am         1    LIG   0.0000
  17 C17          0.5381     4.1648    -1.0093 C.2          1    LIG   0.0000
  18 O18          0.5176     5.3646    -1.0036 O.2          1    LIG   0.0000
  19 C19         -0.1168     3.3989    -2.1472 C.3          1    LIG   0.0000
  20 C20         -0.7199     4.3812    -3.1381 C.3          1    LIG   0.0000
  21 C21         -1.3752     3.6148    -4.2766 C.2          1    LIG   0.0000
  22 C22         -0.6403     3.2677    -5.4416 C.2          1    LIG   0.0000
  23 C23          0.8200     3.6854    -5.5190 C.3          1    LIG   0.0000
  24 N24         -1.2443     2.5992    -6.4122 N.2          1    LIG   0.0000
  25 C25         -2.5637     2.2201    -6.3472 C.2          1    LIG   0.0000
  26 C26         -3.4271     1.5413    -7.1697 C.2          1    LIG   0.0000
  27 C27         -3.3340     0.9368    -8.4530 C.2          1    LIG   0.0000
  28 C28         -4.4084     0.3156    -9.0356 C.2          1    LIG   0.0000
  29 C29         -5.6614     0.2568    -8.3691 C.2          1    LIG   0.0000
  30 C30         -5.7775     0.8330    -7.1312 C.2          1    LIG   0.0000
  31 C31         -4.6695     1.4786    -6.5197 C.2          1    LIG   0.0000
  32 N32         -4.5178     2.0991    -5.3662 N.2          1    LIG   0.0000
  33 N33         -3.2822     2.5446    -5.2408 N.pl3        1    LIG   0.0000
  34 C34         -2.6908     3.2365    -4.2133 C.2          1    LIG   0.0000
  35 C35         -3.4969     3.5966    -2.9750 C.3          1    LIG   0.0000
  36 N36         -1.3606     3.3703     0.0329 N.2          1    LIG   0.0000
  37 H           -2.4496     9.3051     0.0629 H            1    LIG   0.0000
  38 H           -1.4162     8.3290     0.8665 H            1    LIG   0.0000
  39 H           -1.4314     8.3344    -0.7664 H            1    LIG   0.0000
  40 H           -3.6051     7.3917     0.8838 H            1    LIG   0.0000
  41 H           -3.6204     7.3971    -0.7491 H            1    LIG   0.0000
  42 H           -4.3791     2.3734     0.0555 H            1    LIG   0.0000
  43 H           -2.6493     0.4827     0.0254 H            1    LIG   0.0000
  44 H           -0.8712    -0.5271     0.0073 H            1    LIG   0.0000
  45 H            1.2220    -1.6861    -0.0159 H            1    LIG   0.0000
  46 H            3.2757    -0.4714    -0.0309 H            1    LIG   0.0000
  47 H            3.2516     1.9226    -0.0148 H            1    LIG   0.0000
  48 H            1.5828     3.9892     0.7584 H            1    LIG   0.0000
  49 H           -0.8372     2.8098    -1.7813 H            1    LIG   0.0000
  50 H            0.5697     2.8378    -2.6099 H            1    LIG   0.0000
  51 H           -1.4063     4.9422    -2.6754 H            1    LIG   0.0000
  52 H            0.0006     4.9702    -3.5040 H            1    LIG   0.0000
  53 H            1.0710     4.1763    -4.6847 H            1    LIG   0.0000
  54 H            1.3947     2.8725    -5.6132 H            1    LIG   0.0000
  55 H            0.9545     4.2822    -6.3101 H            1    LIG   0.0000
  56 H           -2.4629     0.9655    -8.9432 H            1    LIG   0.0000
  57 H           -4.3089    -0.1007    -9.9394 H            1    LIG   0.0000
  58 H           -6.4442    -0.1966    -8.7953 H            1    LIG   0.0000
  59 H           -6.6544     0.7986    -6.6517 H            1    LIG   0.0000
  60 H           -2.9156     4.0955    -2.3322 H            1    LIG   0.0000
  61 H           -4.2726     4.1706    -3.2375 H            1    LIG   0.0000
  62 H           -3.8327     2.7606    -2.5411 H            1    LIG   0.0000
@<TRIPOS>BOND
   1        1        2 1
   2        2        3 1
   3        3        4 1
   4        4        5 2
   5        4        6 1
   6        6        7 1
   7        7        8 2
   8        8        9 1
   9        9       10 1
  10       10       11 ar
  11       11       12 ar
  12       12       13 ar
  13       13       14 ar
  14       14       15 ar
  15       15       10 ar
  16       15       16 1
  17       16       17 am
  18       17       18 2
  19       17       19 1
  20       19       20 1
  21       20       21 1
  22       21       22 1
  23       22       23 1
  24       22       24 2
  25       24       25 1
  26       25       26 2
  27       26       27 1
  28       27       28 2
  29       28       29 1
  30       29       30 2
  31       30       31 1
  32       31       26 1
  33       31       32 2
  34       32       33 1
  35       33       25 1
  36       33       34 1
  37       34       21 2
  38       34       35 1
  39        9       36 1
  40       36        6 2
  41        1       37 1
  42        1       38 1
  43        1       39 1
  44        2       40 1
  45        2       41 1
  46        7       42 1
  47        8       43 1
  48       11       44 1
  49       12       45 1
  50       13       46 1
  51       14       47 1
  52       16       48 1
  53       19       49 1
  54       19       50 1
  55       20       51 1
  56       20       52 1
  57       23       53 1
  58       23       54 1
  59       23       55 1
  60       27       56 1
  61       28       57 1
  62       29       58 1
  63       30       59 1
  64       35       60 1
  65       35       61 1
  66       35       62 1

