@<TRIPOS>MOLECULE
*****
 62 66 0 0 0
SMALL
USER_CHARGES

@<TRIPOS>ATOM
      1 C1         -6.4508    6.5658    0.0912 C.3     1  LIG1        0.0000
      2 C2         -4.9313    6.5276    0.0768 C.3     1  LIG1        0.0000
      3 O3         -4.4918    5.1774    0.0682 O.3     1  LIG1        0.0000
      4 C4         -3.1930    5.0071    0.0555 C.2     1  LIG1        0.0000
      5 O5         -2.4630    5.9596    0.0519 O.2     1  LIG1        0.0000
      6 C6         -2.6373    3.6677    0.0459 C.2     1  LIG1        0.0000
      7 C7         -3.3835    2.4668    0.0461 C.2     1  LIG1        0.0000
      8 C8         -2.4632    1.4652    0.0310 C.2     1  LIG1        0.0000
      9 N9         -1.2389    2.0617    0.0249 N.pl3   1  LIG1        0.0000
     10 C10        -0.0188    1.3749    0.0102 C.3     1  LIG1        0.0000
     11 C11        -0.0117   -0.0159    0.0027 C.3     1  LIG1        0.0000
     12 C12         1.2070   -0.6862   -0.0114 C.3     1  LIG1        0.0000
     13 C13         2.4051    0.0205   -0.0192 C.3     1  LIG1        0.0000
     14 C14         2.3922    1.4112   -0.0108 C.3     1  LIG1        0.0000
     15 C15         1.1759    2.0859    0.0031 C.3     1  LIG1        0.0000
     16 N16         1.1519    3.4853    0.0098 N.am    1  LIG1        0.0000
     17 C17         0.5381    4.1648   -1.0093 C.2     1  LIG1        0.0000
     18 O18         0.5176    5.3646   -1.0036 O.2     1  LIG1        0.0000
     19 C19        -0.1168    3.3989   -2.1472 C.3     1  LIG1        0.0000
     20 C20        -0.7199    4.3812   -3.1381 C.3     1  LIG1        0.0000
     21 C21        -1.3752    3.6148   -4.2766 C.2     1  LIG1        0.0000
     22 C22        -2.7394    3.2258   -4.2053 C.2     1  LIG1        0.0000
     23 C23        -3.5262    3.5959   -2.9574 C.3     1  LIG1        0.0000
     24 N24        -3.2761    2.5603   -5.2166 N.2     1  LIG1        0.0000
     25 C25        -2.5693    2.2230   -6.3460 C.2     1  LIG1        0.0000
     26 C26        -2.8518    1.5616   -7.5144 C.2     1  LIG1        0.0000
     27 C27        -4.0006    0.9313   -8.0656 C.2     1  LIG1        0.0000
     28 C28        -3.9708    0.3310   -9.2979 C.2     1  LIG1        0.0000
     29 C29        -2.7785    0.3187  -10.0699 C.2     1  LIG1        0.0000
     30 C30        -1.6568    0.9186   -9.5605 C.2     1  LIG1        0.0000
     31 C31        -1.6786    1.5434   -8.2846 C.2     1  LIG1        0.0000
     32 N32        -0.7604    2.1741   -7.5792 N.2     1  LIG1        0.0000
     33 N33        -1.2629    2.5861   -6.4309 N.pl3   1  LIG1        0.0000
     34 C34        -0.6714    3.2775   -5.4031 C.2     1  LIG1        0.0000
     35 C35         0.7906    3.6845   -5.5017 C.3     1  LIG1        0.0000
     36 N36        -1.3606    3.3703    0.0329 N.2     1  LIG1        0.0000
     37 H          -6.7603    7.5167    0.0972 H       1  LIG1        0.0000
     38 H          -6.8034    6.1056   -0.7236 H       1  LIG1        0.0000
     39 H          -6.7882    6.1002    0.9093 H       1  LIG1        0.0000
     40 H          -4.5939    6.9932   -0.7413 H       1  LIG1        0.0000
     41 H          -4.5786    6.9878    0.8916 H       1  LIG1        0.0000
     42 H          -4.3791    2.3734    0.0555 H       1  LIG1        0.0000
     43 H          -2.6493    0.4827    0.0254 H       1  LIG1        0.0000
     44 H          -0.8712   -0.5271    0.0073 H       1  LIG1        0.0000
     45 H           1.2220   -1.6861   -0.0159 H       1  LIG1        0.0000
     46 H           3.2757   -0.4714   -0.0309 H       1  LIG1        0.0000
     47 H           3.2516    1.9226   -0.0148 H       1  LIG1        0.0000
     48 H           1.5828    3.9892    0.7584 H       1  LIG1        0.0000
     49 H          -0.8372    2.8098   -1.7813 H       1  LIG1        0.0000
     50 H           0.5697    2.8378   -2.6099 H       1  LIG1        0.0000
     51 H          -1.4063    4.9422   -2.6754 H       1  LIG1        0.0000
     52 H           0.0006    4.9702   -3.5040 H       1  LIG1        0.0000
     53 H          -2.9326    4.0927   -2.3243 H       1  LIG1        0.0000
     54 H          -4.3012    4.1745   -3.2113 H       1  LIG1        0.0000
     55 H          -3.8619    2.7637   -2.5160 H       1  LIG1        0.0000
     56 H          -4.8521    0.9257   -7.5413 H       1  LIG1        0.0000
     57 H          -4.7971   -0.1028   -9.6570 H       1  LIG1        0.0000
     58 H          -2.7582   -0.1195  -10.9685 H       1  LIG1        0.0000
     59 H          -0.8110    0.9166  -10.0941 H       1  LIG1        0.0000
     60 H           1.0564    4.1764   -4.6726 H       1  LIG1        0.0000
     61 H           1.3582    2.8671   -5.6008 H       1  LIG1        0.0000
     62 H           0.9187    4.2775   -6.2966 H       1  LIG1        0.0000
@<TRIPOS>BOND
     1     1     2    1
     2     2     3    1
     3     3     4    1
     4     4     5    2
     5     4     6    1
     6     6     7    1
     7     7     8    2
     8     8     9    1
     9     9    10    1
    10    10    11   ar
    11    11    12   ar
    12    12    13   ar
    13    13    14   ar
    14    14    15   ar
    15    15    10   ar
    16    15    16    1
    17    16    17   am
    18    17    18    2
    19    17    19    1
    20    19    20    1
    21    20    21    1
    22    21    22    1
    23    22    23    1
    24    22    24    2
    25    24    25    1
    26    25    26    2
    27    26    27    1
    28    27    28    2
    29    28    29    1
    30    29    30    2
    31    30    31    1
    32    31    26    1
    33    31    32    2
    34    32    33    1
    35    33    25    1
    36    33    34    1
    37    34    21    2
    38    34    35    1
    39     9    36    1
    40    36     6    2
    41     1    37    1
    42     1    38    1
    43     1    39    1
    44     2    40    1
    45     2    41    1
    46     7    42    1
    47     8    43    1
    48    11    44    1
    49    12    45    1
    50    13    46    1
    51    14    47    1
    52    16    48    1
    53    19    49    1
    54    19    50    1
    55    20    51    1
    56    20    52    1
    57    23    53    1
    58    23    54    1
    59    23    55    1
    60    27    56    1
    61    28    57    1
    62    29    58    1
    63    30    59    1
    64    35    60    1
    65    35    61    1
    66    35    62    1
