@<TRIPOS>MOLECULE
*****
 62 66 0 0 0
SMALL
USER_CHARGES

@<TRIPOS>ATOM
      1 C1         -1.9952    8.4143    0.0557 C.3     1  LIG1        0.0000
      2 C2         -3.0414    7.3117    0.0618 C.3     1  LIG1        0.0000
      3 O3         -2.3961    6.0469    0.0515 O.3     1  LIG1        0.0000
      4 C4         -3.1930    5.0071    0.0555 C.2     1  LIG1        0.0000
      5 O5         -4.3827    5.1631    0.0672 O.2     1  LIG1        0.0000
      6 C6         -2.6373    3.6677    0.0459 C.2     1  LIG1        0.0000
      7 C7         -3.3835    2.4668    0.0461 C.2     1  LIG1        0.0000
      8 C8         -2.4632    1.4652    0.0310 C.2     1  LIG1        0.0000
      9 N9         -1.2389    2.0617    0.0249 N.pl3   1  LIG1        0.0000
     10 C10        -0.0188    1.3749    0.0102 C.3     1  LIG1        0.0000
     11 C11        -0.0117   -0.0159    0.0027 C.3     1  LIG1        0.0000
     12 C12         1.2070   -0.6862   -0.0114 C.3     1  LIG1        0.0000
     13 C13         2.4051    0.0205   -0.0192 C.3     1  LIG1        0.0000
     14 C14         2.3922    1.4112   -0.0108 C.3     1  LIG1        0.0000
     15 C15         1.1759    2.0859    0.0031 C.3     1  LIG1        0.0000
     16 N16         1.1519    3.4853    0.0098 N.am    1  LIG1        0.0000
     17 C17         1.7244    4.1852   -1.0195 C.2     1  LIG1        0.0000
     18 O18         1.7038    5.3850   -1.0138 O.2     1  LIG1        0.0000
     19 C19         2.3856    3.4419   -2.1687 C.3     1  LIG1        0.0000
     20 C20         2.9376    4.4440   -3.1694 C.3     1  LIG1        0.0000
     21 C21         3.5992    3.7002   -4.3193 C.2     1  LIG1        0.0000
     22 C22         4.9770    3.3583   -4.2715 C.2     1  LIG1        0.0000
     23 C23         5.7726    3.7585   -3.0386 C.3     1  LIG1        0.0000
     24 N24         5.5184    2.7098   -5.2913 N.2     1  LIG1        0.0000
     25 C25         4.8039    2.3466   -6.4077 C.2     1  LIG1        0.0000
     26 C26         5.0873    1.6892   -7.5782 C.2     1  LIG1        0.0000
     27 C27         6.2478    1.0996   -8.1497 C.2     1  LIG1        0.0000
     28 C28         6.2177    0.4993   -9.3820 C.2     1  LIG1        0.0000
     29 C29         5.0141    0.4482  -10.1346 C.2     1  LIG1        0.0000
     30 C30         3.8816    1.0103   -9.6063 C.2     1  LIG1        0.0000
     31 C31         3.9033    1.6342   -8.3300 C.2     1  LIG1        0.0000
     32 N32         2.9776    2.2383   -7.6113 N.2     1  LIG1        0.0000
     33 N33         3.4850    2.6664   -6.4710 N.pl3   1  LIG1        0.0000
     34 C34         2.8880    3.3379   -5.4332 C.2     1  LIG1        0.0000
     35 C35         1.4109    3.6928   -5.5059 C.3     1  LIG1        0.0000
     36 N36        -1.3606    3.3703    0.0329 N.2     1  LIG1        0.0000
     37 H          -2.4496    9.3051    0.0629 H       1  LIG1        0.0000
     38 H          -1.4162    8.3290    0.8665 H       1  LIG1        0.0000
     39 H          -1.4314    8.3344   -0.7664 H       1  LIG1        0.0000
     40 H          -3.6051    7.3917    0.8838 H       1  LIG1        0.0000
     41 H          -3.6204    7.3971   -0.7491 H       1  LIG1        0.0000
     42 H          -4.3791    2.3734    0.0555 H       1  LIG1        0.0000
     43 H          -2.6493    0.4827    0.0254 H       1  LIG1        0.0000
     44 H          -0.8712   -0.5271    0.0073 H       1  LIG1        0.0000
     45 H           1.2220   -1.6861   -0.0159 H       1  LIG1        0.0000
     46 H           3.2757   -0.4714   -0.0309 H       1  LIG1        0.0000
     47 H           3.2516    1.9226   -0.0148 H       1  LIG1        0.0000
     48 H           0.7169    3.9744    0.7659 H       1  LIG1        0.0000
     49 H           1.7110    2.8574   -2.6197 H       1  LIG1        0.0000
     50 H           3.1320    2.8780   -1.8154 H       1  LIG1        0.0000
     51 H           2.1911    5.0079   -3.5228 H       1  LIG1        0.0000
     52 H           3.6121    5.0284   -2.7184 H       1  LIG1        0.0000
     53 H           5.1735    4.2357   -2.3956 H       1  LIG1        0.0000
     54 H           6.1452    2.9396   -2.6021 H       1  LIG1        0.0000
     55 H           6.5222    4.3633   -3.3074 H       1  LIG1        0.0000
     56 H           7.1078    1.1233   -7.6400 H       1  LIG1        0.0000
     57 H           7.0519    0.0931   -9.7549 H       1  LIG1        0.0000
     58 H           4.9936    0.0101  -11.0333 H       1  LIG1        0.0000
     59 H           3.0279    0.9811  -10.1263 H       1  LIG1        0.0000
     60 H           1.1428    4.1762   -4.6725 H       1  LIG1        0.0000
     61 H           1.2477    4.2798   -6.2988 H       1  LIG1        0.0000
     62 H           0.8709    2.8557   -5.5941 H       1  LIG1        0.0000
@<TRIPOS>BOND
     1     1     2    1
     2     2     3    1
     3     3     4    1
     4     4     5    2
     5     4     6    1
     6     6     7    1
     7     7     8    2
     8     8     9    1
     9     9    10    1
    10    10    11   ar
    11    11    12   ar
    12    12    13   ar
    13    13    14   ar
    14    14    15   ar
    15    15    10   ar
    16    15    16    1
    17    16    17   am
    18    17    18    2
    19    17    19    1
    20    19    20    1
    21    20    21    1
    22    21    22    1
    23    22    23    1
    24    22    24    2
    25    24    25    1
    26    25    26    2
    27    26    27    1
    28    27    28    2
    29    28    29    1
    30    29    30    2
    31    30    31    1
    32    31    26    1
    33    31    32    2
    34    32    33    1
    35    33    25    1
    36    33    34    1
    37    34    21    2
    38    34    35    1
    39     9    36    1
    40    36     6    2
    41     1    37    1
    42     1    38    1
    43     1    39    1
    44     2    40    1
    45     2    41    1
    46     7    42    1
    47     8    43    1
    48    11    44    1
    49    12    45    1
    50    13    46    1
    51    14    47    1
    52    16    48    1
    53    19    49    1
    54    19    50    1
    55    20    51    1
    56    20    52    1
    57    23    53    1
    58    23    54    1
    59    23    55    1
    60    27    56    1
    61    28    57    1
    62    29    58    1
    63    30    59    1
    64    35    60    1
    65    35    61    1
    66    35    62    1
