@<TRIPOS>MOLECULE
*****
 62 66 0 0 0
SMALL
USER_CHARGES

@<TRIPOS>ATOM
      1 C1         -6.4508    6.5658    0.0912 C.3     1  LIG1        0.0000
      2 C2         -4.9313    6.5276    0.0768 C.3     1  LIG1        0.0000
      3 O3         -4.4918    5.1774    0.0682 O.3     1  LIG1        0.0000
      4 C4         -3.1930    5.0071    0.0555 C.2     1  LIG1        0.0000
      5 O5         -2.4630    5.9596    0.0519 O.2     1  LIG1        0.0000
      6 C6         -2.6373    3.6677    0.0459 C.2     1  LIG1        0.0000
      7 C7         -3.3835    2.4668    0.0461 C.2     1  LIG1        0.0000
      8 C8         -2.4632    1.4652    0.0310 C.2     1  LIG1        0.0000
      9 N9         -1.2389    2.0617    0.0249 N.pl3   1  LIG1        0.0000
     10 C10        -0.0188    1.3749    0.0102 C.3     1  LIG1        0.0000
     11 C11        -0.0117   -0.0159    0.0027 C.3     1  LIG1        0.0000
     12 C12         1.2070   -0.6862   -0.0114 C.3     1  LIG1        0.0000
     13 C13         2.4051    0.0205   -0.0192 C.3     1  LIG1        0.0000
     14 C14         2.3922    1.4112   -0.0108 C.3     1  LIG1        0.0000
     15 C15         1.1759    2.0859    0.0031 C.3     1  LIG1        0.0000
     16 N16         1.1519    3.4853    0.0098 N.am    1  LIG1        0.0000
     17 C17         1.7244    4.1852   -1.0195 C.2     1  LIG1        0.0000
     18 O18         2.2464    3.5983   -1.9268 O.2     1  LIG1        0.0000
     19 C19         1.6983    5.7049   -1.0122 C.3     1  LIG1        0.0000
     20 C20         2.3953    6.2295   -2.2570 C.3     1  LIG1        0.0000
     21 C21         2.3693    7.7502   -2.2497 C.2     1  LIG1        0.0000
     22 C22         1.2967    8.4652   -2.8463 C.2     1  LIG1        0.0000
     23 C23         0.1756    7.6672   -3.4941 C.3     1  LIG1        0.0000
     24 N24         1.3078    9.7891   -2.8199 N.2     1  LIG1        0.0000
     25 C25         2.3187   10.5147   -2.2364 C.2     1  LIG1        0.0000
     26 C26         2.5885   11.8484   -2.0606 C.2     1  LIG1        0.0000
     27 C27         1.9405   13.0644   -2.4104 C.2     1  LIG1        0.0000
     28 C28         2.4775   14.2844   -2.0896 C.2     1  LIG1        0.0000
     29 C29         3.7115   14.3727   -1.3916 C.2     1  LIG1        0.0000
     30 C30         4.3568   13.2149   -1.0439 C.2     1  LIG1        0.0000
     31 C31         3.8076   11.9463   -1.3719 C.2     1  LIG1        0.0000
     32 N32         4.2166   10.7106   -1.1617 N.2     1  LIG1        0.0000
     33 N33         3.3532    9.8473   -1.6619 N.pl3   1  LIG1        0.0000
     34 C34         3.3768    8.4748   -1.6687 C.2     1  LIG1        0.0000
     35 C35         4.5352    7.7303   -1.0230 C.3     1  LIG1        0.0000
     36 N36        -1.3606    3.3703    0.0329 N.2     1  LIG1        0.0000
     37 H          -6.7603    7.5167    0.0972 H       1  LIG1        0.0000
     38 H          -6.8034    6.1056   -0.7236 H       1  LIG1        0.0000
     39 H          -6.7882    6.1002    0.9093 H       1  LIG1        0.0000
     40 H          -4.5939    6.9932   -0.7413 H       1  LIG1        0.0000
     41 H          -4.5786    6.9878    0.8916 H       1  LIG1        0.0000
     42 H          -4.3791    2.3734    0.0555 H       1  LIG1        0.0000
     43 H          -2.6493    0.4827    0.0254 H       1  LIG1        0.0000
     44 H          -0.8712   -0.5271    0.0073 H       1  LIG1        0.0000
     45 H           1.2220   -1.6861   -0.0159 H       1  LIG1        0.0000
     46 H           3.2757   -0.4714   -0.0309 H       1  LIG1        0.0000
     47 H           3.2516    1.9226   -0.0148 H       1  LIG1        0.0000
     48 H           0.7169    3.9744    0.7659 H       1  LIG1        0.0000
     49 H           2.1710    6.0425   -0.1982 H       1  LIG1        0.0000
     50 H           0.7500    6.0220   -1.0026 H       1  LIG1        0.0000
     51 H           3.3437    5.9125   -2.2667 H       1  LIG1        0.0000
     52 H           1.9226    5.8919   -3.0710 H       1  LIG1        0.0000
     53 H           0.3655    6.6898   -3.4013 H       1  LIG1        0.0000
     54 H          -0.6906    7.8827   -3.0432 H       1  LIG1        0.0000
     55 H           0.1148    7.9044   -4.4636 H       1  LIG1        0.0000
     56 H           1.0709   13.0290   -2.9029 H       1  LIG1        0.0000
     57 H           1.9954   15.1210   -2.3497 H       1  LIG1        0.0000
     58 H           4.1021   15.2632   -1.1584 H       1  LIG1        0.0000
     59 H           5.2264   13.2636   -0.5525 H       1  LIG1        0.0000
     60 H           4.3927    6.7451   -1.1183 H       1  LIG1        0.0000
     61 H           5.3899    7.9886   -1.4733 H       1  LIG1        0.0000
     62 H           4.5846    7.9677   -0.0528 H       1  LIG1        0.0000
@<TRIPOS>BOND
     1     1     2    1
     2     2     3    1
     3     3     4    1
     4     4     5    2
     5     4     6    1
     6     6     7    1
     7     7     8    2
     8     8     9    1
     9     9    10    1
    10    10    11   ar
    11    11    12   ar
    12    12    13   ar
    13    13    14   ar
    14    14    15   ar
    15    15    10   ar
    16    15    16    1
    17    16    17   am
    18    17    18    2
    19    17    19    1
    20    19    20    1
    21    20    21    1
    22    21    22    1
    23    22    23    1
    24    22    24    2
    25    24    25    1
    26    25    26    2
    27    26    27    1
    28    27    28    2
    29    28    29    1
    30    29    30    2
    31    30    31    1
    32    31    26    1
    33    31    32    2
    34    32    33    1
    35    33    25    1
    36    33    34    1
    37    34    21    2
    38    34    35    1
    39     9    36    1
    40    36     6    2
    41     1    37    1
    42     1    38    1
    43     1    39    1
    44     2    40    1
    45     2    41    1
    46     7    42    1
    47     8    43    1
    48    11    44    1
    49    12    45    1
    50    13    46    1
    51    14    47    1
    52    16    48    1
    53    19    49    1
    54    19    50    1
    55    20    51    1
    56    20    52    1
    57    23    53    1
    58    23    54    1
    59    23    55    1
    60    27    56    1
    61    28    57    1
    62    29    58    1
    63    30    59    1
    64    35    60    1
    65    35    61    1
    66    35    62    1
