@<TRIPOS>MOLECULE
*****
 62 66 0 0 0
SMALL
USER_CHARGES

@<TRIPOS>ATOM
      1 C1         -1.9952    8.4143    0.0557 C.3     1  LIG1        0.0000
      2 C2         -3.0414    7.3117    0.0618 C.3     1  LIG1        0.0000
      3 O3         -2.3961    6.0469    0.0515 O.3     1  LIG1        0.0000
      4 C4         -3.1930    5.0071    0.0555 C.2     1  LIG1        0.0000
      5 O5         -4.3827    5.1631    0.0672 O.2     1  LIG1        0.0000
      6 C6         -2.6373    3.6677    0.0459 C.2     1  LIG1        0.0000
      7 C7         -3.3835    2.4668    0.0461 C.2     1  LIG1        0.0000
      8 C8         -2.4632    1.4652    0.0310 C.2     1  LIG1        0.0000
      9 N9         -1.2389    2.0617    0.0249 N.pl3   1  LIG1        0.0000
     10 C10        -0.0188    1.3749    0.0102 C.3     1  LIG1        0.0000
     11 C11        -0.0117   -0.0159    0.0027 C.3     1  LIG1        0.0000
     12 C12         1.2070   -0.6862   -0.0114 C.3     1  LIG1        0.0000
     13 C13         2.4051    0.0205   -0.0192 C.3     1  LIG1        0.0000
     14 C14         2.3922    1.4112   -0.0108 C.3     1  LIG1        0.0000
     15 C15         1.1759    2.0859    0.0031 C.3     1  LIG1        0.0000
     16 N16         1.1519    3.4853    0.0098 N.am    1  LIG1        0.0000
     17 C17         0.5381    4.1648   -1.0093 C.2     1  LIG1        0.0000
     18 O18         0.5176    5.3646   -1.0036 O.2     1  LIG1        0.0000
     19 C19        -0.1168    3.3989   -2.1472 C.3     1  LIG1        0.0000
     20 C20        -0.7199    4.3812   -3.1381 C.3     1  LIG1        0.0000
     21 C21        -1.3752    3.6148   -4.2766 C.2     1  LIG1        0.0000
     22 C22        -0.6403    3.2677   -5.4416 C.2     1  LIG1        0.0000
     23 C23         0.8200    3.6854   -5.5190 C.3     1  LIG1        0.0000
     24 N24        -1.2443    2.5992   -6.4122 N.2     1  LIG1        0.0000
     25 C25        -2.5637    2.2201   -6.3472 C.2     1  LIG1        0.0000
     26 C26        -3.4271    1.5413   -7.1697 C.2     1  LIG1        0.0000
     27 C27        -3.3340    0.9368   -8.4530 C.2     1  LIG1        0.0000
     28 C28        -4.4084    0.3156   -9.0356 C.2     1  LIG1        0.0000
     29 C29        -5.6614    0.2568   -8.3691 C.2     1  LIG1        0.0000
     30 C30        -5.7775    0.8330   -7.1312 C.2     1  LIG1        0.0000
     31 C31        -4.6695    1.4786   -6.5197 C.2     1  LIG1        0.0000
     32 N32        -4.5178    2.0991   -5.3662 N.2     1  LIG1        0.0000
     33 N33        -3.2822    2.5446   -5.2408 N.pl3   1  LIG1        0.0000
     34 C34        -2.6908    3.2365   -4.2133 C.2     1  LIG1        0.0000
     35 C35        -3.4969    3.5966   -2.9750 C.3     1  LIG1        0.0000
     36 N36        -1.3606    3.3703    0.0329 N.2     1  LIG1        0.0000
     37 H          -2.4496    9.3051    0.0629 H       1  LIG1        0.0000
     38 H          -1.4162    8.3290    0.8665 H       1  LIG1        0.0000
     39 H          -1.4314    8.3344   -0.7664 H       1  LIG1        0.0000
     40 H          -3.6051    7.3917    0.8838 H       1  LIG1        0.0000
     41 H          -3.6204    7.3971   -0.7491 H       1  LIG1        0.0000
     42 H          -4.3791    2.3734    0.0555 H       1  LIG1        0.0000
     43 H          -2.6493    0.4827    0.0254 H       1  LIG1        0.0000
     44 H          -0.8712   -0.5271    0.0073 H       1  LIG1        0.0000
     45 H           1.2220   -1.6861   -0.0159 H       1  LIG1        0.0000
     46 H           3.2757   -0.4714   -0.0309 H       1  LIG1        0.0000
     47 H           3.2516    1.9226   -0.0148 H       1  LIG1        0.0000
     48 H           1.5828    3.9892    0.7584 H       1  LIG1        0.0000
     49 H          -0.8372    2.8098   -1.7813 H       1  LIG1        0.0000
     50 H           0.5697    2.8378   -2.6099 H       1  LIG1        0.0000
     51 H          -1.4063    4.9422   -2.6754 H       1  LIG1        0.0000
     52 H           0.0006    4.9702   -3.5040 H       1  LIG1        0.0000
     53 H           1.0710    4.1763   -4.6847 H       1  LIG1        0.0000
     54 H           1.3947    2.8725   -5.6132 H       1  LIG1        0.0000
     55 H           0.9545    4.2822   -6.3101 H       1  LIG1        0.0000
     56 H          -2.4629    0.9655   -8.9432 H       1  LIG1        0.0000
     57 H          -4.3089   -0.1007   -9.9394 H       1  LIG1        0.0000
     58 H          -6.4442   -0.1966   -8.7953 H       1  LIG1        0.0000
     59 H          -6.6544    0.7986   -6.6517 H       1  LIG1        0.0000
     60 H          -2.9156    4.0955   -2.3322 H       1  LIG1        0.0000
     61 H          -4.2726    4.1706   -3.2375 H       1  LIG1        0.0000
     62 H          -3.8327    2.7606   -2.5411 H       1  LIG1        0.0000
@<TRIPOS>BOND
     1     1     2    1
     2     2     3    1
     3     3     4    1
     4     4     5    2
     5     4     6    1
     6     6     7    1
     7     7     8    2
     8     8     9    1
     9     9    10    1
    10    10    11   ar
    11    11    12   ar
    12    12    13   ar
    13    13    14   ar
    14    14    15   ar
    15    15    10   ar
    16    15    16    1
    17    16    17   am
    18    17    18    2
    19    17    19    1
    20    19    20    1
    21    20    21    1
    22    21    22    1
    23    22    23    1
    24    22    24    2
    25    24    25    1
    26    25    26    2
    27    26    27    1
    28    27    28    2
    29    28    29    1
    30    29    30    2
    31    30    31    1
    32    31    26    1
    33    31    32    2
    34    32    33    1
    35    33    25    1
    36    33    34    1
    37    34    21    2
    38    34    35    1
    39     9    36    1
    40    36     6    2
    41     1    37    1
    42     1    38    1
    43     1    39    1
    44     2    40    1
    45     2    41    1
    46     7    42    1
    47     8    43    1
    48    11    44    1
    49    12    45    1
    50    13    46    1
    51    14    47    1
    52    16    48    1
    53    19    49    1
    54    19    50    1
    55    20    51    1
    56    20    52    1
    57    23    53    1
    58    23    54    1
    59    23    55    1
    60    27    56    1
    61    28    57    1
    62    29    58    1
    63    30    59    1
    64    35    60    1
    65    35    61    1
    66    35    62    1
