@<TRIPOS>MOLECULE
*****
 52 54 0 0 0
SMALL
USER_CHARGES

@<TRIPOS>ATOM
      1 C1         -3.5920   -2.2226    4.9547 C.3     1  LIG1        0.0000
      2 C2         -2.9529   -1.8229    3.6345 C.3     1  LIG1        0.0000
      3 C3         -2.0344   -2.6763    3.0323 C.3     1  LIG1        0.0000
      4 C4         -1.4545   -2.3030    1.8242 C.3     1  LIG1        0.0000
      5 C5         -0.4498   -3.2303    1.1595 C.3     1  LIG1        0.0000
      6 C6         -1.7868   -1.0930    1.2244 C.3     1  LIG1        0.0000
      7 N7         -1.2007   -0.7205    0.0082 N.pl3   1  LIG1        0.0000
      8 C8         -0.0026    0.0137    0.0013 C.3     1  LIG1        0.0000
      9 C9          1.2089   -0.6699   -0.0135 C.3     1  LIG1        0.0000
     10 C10         2.4012    0.0473   -0.0206 C.3     1  LIG1        0.0000
     11 C11         3.6573   -0.6769   -0.0363 C.3     1  LIG1        0.0000
     12 C12         3.6480   -2.0679   -0.0445 C.3     1  LIG1        0.0000
     13 C13         4.8577   -2.7541   -0.0602 C.3     1  LIG1        0.0000
     14 C14         6.0668   -2.0668   -0.0667 C.3     1  LIG1        0.0000
     15 C15         6.0525   -0.6757   -0.0584 C.3     1  LIG1        0.0000
     16 O16         7.2202    0.0018   -0.0649 O.2     1  LIG1        0.0000
     17 C17         7.7373    0.3165   -1.3495 C.3     1  LIG1        0.0000
     18 F18         8.9139   -0.2817   -1.5125 F       1  LIG1        0.0000
     19 F19         6.8911   -0.1074   -2.2840 F       1  LIG1        0.0000
     20 F20         7.8910    1.6334   -1.4550 F       1  LIG1        0.0000
     21 C21         4.8547    0.0307   -0.0431 C.3     1  LIG1        0.0000
     22 N22         2.3347    1.3908   -0.0121 N.pl3   1  LIG1        0.0000
     23 C23         1.1742    2.0716    0.0022 C.3     1  LIG1        0.0000
     24 N24         1.1536    3.4787    0.0102 N.pl3   1  LIG1        0.0000
     25 C25         2.4157    4.2324    0.0033 C.3     1  LIG1        0.0000
     26 C26         2.1161    5.7225    0.0142 C.3     1  LIG1        0.0000
     27 O27         2.8119    6.4949    0.7082 O.2     1  LIG1        0.0000
     28 O28         1.2039    6.1611   -0.6490 O.2     1  LIG1       -1.0000
     29 N29         0.0317    1.3592    0.0083 N.pl3   1  LIG1        0.0000
     30 C30        -2.7076   -0.2503    1.8399 C.3     1  LIG1        0.0000
     31 C31        -3.0947    1.0795    1.2133 C.3     1  LIG1        0.0000
     32 C32        -3.2964   -0.6092    3.0481 C.3     1  LIG1        0.0000
     33 H          -4.2232   -1.5054    5.2501 H       1  LIG1        0.0000
     34 H          -4.0932   -3.0798    4.8364 H       1  LIG1        0.0000
     35 H          -2.8800   -2.3455    5.6460 H       1  LIG1        0.0000
     36 H          -1.7942   -3.5468    3.4621 H       1  LIG1        0.0000
     37 H          -0.3291   -4.0487    1.7213 H       1  LIG1        0.0000
     38 H          -0.7864   -3.4933    0.2553 H       1  LIG1        0.0000
     39 H           0.4270   -2.7588    1.0646 H       1  LIG1        0.0000
     40 H          -1.6348   -0.9771   -0.8554 H       1  LIG1        0.0000
     41 H           1.2228   -1.6698   -0.0191 H       1  LIG1        0.0000
     42 H           2.7823   -2.5683   -0.0393 H       1  LIG1        0.0000
     43 H           4.8581   -3.7540   -0.0669 H       1  LIG1        0.0000
     44 H           6.9337   -2.5653   -0.0772 H       1  LIG1        0.0000
     45 H           4.8542    1.0307   -0.0370 H       1  LIG1        0.0000
     46 H           0.2803    3.9659    0.0206 H       1  LIG1        0.0000
     47 H           2.9363    4.0031   -0.8191 H       1  LIG1        0.0000
     48 H           2.9507    3.9940    0.8138 H       1  LIG1        0.0000
     49 H          -3.7632    1.5408    1.7967 H       1  LIG1        0.0000
     50 H          -2.2812    1.6535    1.1203 H       1  LIG1        0.0000
     51 H          -3.4944    0.9190    0.3109 H       1  LIG1        0.0000
     52 H          -3.9579   -0.0027    3.4891 H       1  LIG1        0.0000
@<TRIPOS>UNITY_ATOM_ATTR
27 1
charge -1
@<TRIPOS>BOND
     1     1     2    1
     2     2     3   ar
     3     3     4   ar
     4     4     5    1
     5     4     6   ar
     6     6     7    1
     7     7     8    1
     8     8     9   ar
     9     9    10   ar
    10    10    11    1
    11    11    12   ar
    12    12    13   ar
    13    13    14   ar
    14    14    15   ar
    15    15    16    1
    16    16    17    1
    17    17    18    1
    18    17    19    1
    19    17    20    1
    20    15    21   ar
    21    21    11   ar
    22    10    22   ar
    23    22    23   ar
    24    23    24    1
    25    24    25    1
    26    25    26    1
    27    26    27    1
    28    26    28    2
    29    23    29   ar
    30    29     8   ar
    31     6    30   ar
    32    30    31    1
    33    30    32   ar
    34    32     2   ar
    35     1    33    1
    36     1    34    1
    37     1    35    1
    38     3    36    1
    39     5    37    1
    40     5    38    1
    41     5    39    1
    42     7    40    1
    43     9    41    1
    44    12    42    1
    45    13    43    1
    46    14    44    1
    47    21    45    1
    48    24    46    1
    49    25    47    1
    50    25    48    1
    51    31    49    1
    52    31    50    1
    53    31    51    1
    54    32    52    1
