@<TRIPOS>MOLECULE

  71   74
SMALL
USER_CHARGES
@<TRIPOS>ATOM
   1 C1          -4.9278    -0.7587     5.4256 C.3          1    LIG   0.0000
   2 O2          -3.6672    -0.1243     5.2676 O.3          1    LIG   0.0000
   3 C3          -3.3741     0.2819     4.0141 C.ar         1    LIG   0.0000
   4 C4          -4.2927     0.0613     2.9930 C.ar         1    LIG   0.0000
   5 C5          -3.9854     0.4813     1.7026 C.ar         1    LIG   0.0000
   6 C6          -2.7727     1.1135     1.4469 C.ar         1    LIG   0.0000
   7 C7          -2.4350     1.5722     0.0375 C.3          1    LIG   0.0000
   8 N8          -1.1074     2.2034     0.0325 N.pl3        1    LIG   0.0000
   9 C9          -0.9901     3.6686     0.0483 C.3          1    LIG   0.0000
  10 C10          0.0426     1.4109     0.0126 C.2          1    LIG   0.0000
  11 N11          1.2808     1.8391     0.0060 N.2          1    LIG   0.0000
  12 N12          2.0968     0.8006    -0.0246 N.2          1    LIG   0.0000
  13 C13          1.4004    -0.3102    -0.0301 C.2          1    LIG   0.0000
  14 C14          1.9531    -1.7256    -0.0595 C.3          1    LIG   0.0000
  15 C15          3.4721    -1.6760    -0.0823 C.3          1    LIG   0.0000
  16 C16          4.0249    -3.0917    -0.1117 C.3          1    LIG   0.0000
  17 C17          3.9360    -0.9252    -1.3198 C.3          1    LIG   0.0000
  18 C18          3.9745    -0.9617     1.1618 C.3          1    LIG   0.0000
  19 N19          0.0889     0.0505    -0.0083 N.pl3        1    LIG   0.0000
  20 C20         -1.0627    -0.8618    -0.0041 C.3          1    LIG   0.0000
  21 C21         -1.4821    -1.1553    -1.4362 C.ar         1    LIG   0.0000
  22 C22         -1.6665    -2.4724    -1.8450 C.ar         1    LIG   0.0000
  23 C23         -2.0508    -2.7474    -3.1532 C.ar         1    LIG   0.0000
  24 C24         -2.2433    -1.6911    -4.0377 C.ar         1    LIG   0.0000
  25 N25         -2.6283    -1.9834    -5.3527 N.pl3        1    LIG   0.0000
  26 N26         -2.8288    -3.1857    -5.8364 N.2          1    LIG   0.0000
  27 C27         -3.1792    -3.1085    -7.0986 C.2          1    LIG   0.0000
  28 C28         -3.4971    -4.2832    -8.0083 C.3          1    LIG   0.0000
  29 C29         -3.2096    -1.7463    -7.4606 C.2          1    LIG   0.0000
  30 C30         -2.8571    -1.0699    -6.3359 C.2          1    LIG   0.0000
  31 C31         -2.7418     0.4401    -6.2043 C.3          1    LIG   0.0000
  32 N32         -2.0595    -0.4278    -3.6250 N.ar         1    LIG   0.0000
  33 C33         -1.6904    -0.1427    -2.3674 C.ar         1    LIG   0.0000
  34 C34         -1.8509     1.3356     2.4643 C.ar         1    LIG   0.0000
  35 C35         -2.1625     0.9139     3.7525 C.ar         1    LIG   0.0000
  36 O36         -1.2858     1.1150     4.7588 O.3          1    LIG   0.0000
  37 H           -5.0513    -1.0210     6.3827 H            1    LIG   0.0000
  38 H           -5.6549    -0.1270     5.1567 H            1    LIG   0.0000
  39 H           -4.9649    -1.5747     4.8488 H            1    LIG   0.0000
  40 H           -5.1626    -0.3934     3.1840 H            1    LIG   0.0000
  41 H           -4.6363     0.3288     0.9589 H            1    LIG   0.0000
  42 H           -2.4316     0.7838    -0.5778 H            1    LIG   0.0000
  43 H           -3.1194     2.2328    -0.2710 H            1    LIG   0.0000
  44 H           -1.9033     4.0759     0.0615 H            1    LIG   0.0000
  45 H           -0.4861     3.9538     0.8635 H            1    LIG   0.0000
  46 H           -0.5013     3.9727    -0.7693 H            1    LIG   0.0000
  47 H            1.6226    -2.1956    -0.8779 H            1    LIG   0.0000
  48 H            1.6479    -2.2196     0.7547 H            1    LIG   0.0000
  49 H            5.0243    -3.0590    -0.1267 H            1    LIG   0.0000
  50 H            3.7197    -3.5856     0.7025 H            1    LIG   0.0000
  51 H            3.6944    -3.5616    -0.9301 H            1    LIG   0.0000
  52 H            4.9354    -0.8926    -1.3348 H            1    LIG   0.0000
  53 H            3.6055    -1.3952    -2.1383 H            1    LIG   0.0000
  54 H            3.5724     0.0061    -1.3005 H            1    LIG   0.0000
  55 H            4.9738    -0.9290     1.1468 H            1    LIG   0.0000
  56 H            3.6108    -0.0303     1.1811 H            1    LIG   0.0000
  57 H            3.6693    -1.4556     1.9759 H            1    LIG   0.0000
  58 H           -1.8235    -0.4359     0.4855 H            1    LIG   0.0000
  59 H           -0.8098    -1.7156     0.4508 H            1    LIG   0.0000
  60 H           -1.5226    -3.2214    -1.1982 H            1    LIG   0.0000
  61 H           -2.1869    -3.6914    -3.4537 H            1    LIG   0.0000
  62 H           -3.7348    -3.9449    -8.9188 H            1    LIG   0.0000
  63 H           -2.6978    -4.8806    -8.0729 H            1    LIG   0.0000
  64 H           -4.2679    -4.7972    -7.6319 H            1    LIG   0.0000
  65 H           -3.4411    -1.3605    -8.3536 H            1    LIG   0.0000
  66 H           -2.9654     0.8690    -7.0795 H            1    LIG   0.0000
  67 H           -3.3772     0.7630    -5.5029 H            1    LIG   0.0000
  68 H           -1.8070     0.6815    -5.9439 H            1    LIG   0.0000
  69 H           -1.5632     0.8111    -2.0952 H            1    LIG   0.0000
  70 H           -0.9807     1.7898     2.2733 H            1    LIG   0.0000
  71 H           -0.4130     1.5685     4.5784 H            1    LIG   0.0000
@<TRIPOS>BOND
   1        1        2 1
   2        2        3 1
   3        3        4 ar
   4        4        5 ar
   5        5        6 ar
   6        6        7 1
   7        7        8 1
   8        8        9 1
   9        8       10 1
  10       10       11 2
  11       11       12 1
  12       12       13 2
  13       13       14 1
  14       14       15 1
  15       15       16 1
  16       15       17 1
  17       15       18 1
  18       13       19 1
  19       19       10 1
  20       19       20 1
  21       20       21 1
  22       21       22 ar
  23       22       23 ar
  24       23       24 ar
  25       24       25 1
  26       25       26 1
  27       26       27 2
  28       27       28 1
  29       27       29 1
  30       29       30 2
  31       30       25 1
  32       30       31 1
  33       24       32 ar
  34       32       33 ar
  35       33       21 ar
  36        6       34 ar
  37       34       35 ar
  38       35        3 ar
  39       35       36 1
  40        1       37 1
  41        1       38 1
  42        1       39 1
  43        4       40 1
  44        5       41 1
  45        7       42 1
  46        7       43 1
  47        9       44 1
  48        9       45 1
  49        9       46 1
  50       14       47 1
  51       14       48 1
  52       16       49 1
  53       16       50 1
  54       16       51 1
  55       17       52 1
  56       17       53 1
  57       17       54 1
  58       18       55 1
  59       18       56 1
  60       18       57 1
  61       20       58 1
  62       20       59 1
  63       22       60 1
  64       23       61 1
  65       28       62 1
  66       28       63 1
  67       28       64 1
  68       29       65 1
  69       31       66 1
  70       31       67 1
  71       31       68 1
  72       33       69 1
  73       34       70 1
  74       36       71 1

@<TRIPOS>MOLECULE

  71   74
SMALL
USER_CHARGES
@<TRIPOS>ATOM
   1 C1          -4.9278    -0.7587     5.4256 C.3          1    LIG   0.0000
   2 O2          -3.6672    -0.1243     5.2676 O.3          1    LIG   0.0000
   3 C3          -3.3741     0.2819     4.0141 C.ar         1    LIG   0.0000
   4 C4          -4.2927     0.0613     2.9930 C.ar         1    LIG   0.0000
   5 C5          -3.9854     0.4813     1.7026 C.ar         1    LIG   0.0000
   6 C6          -2.7727     1.1135     1.4469 C.ar         1    LIG   0.0000
   7 C7          -2.4350     1.5722     0.0375 C.3          1    LIG   0.0000
   8 N8          -1.1074     2.2034     0.0325 N.pl3        1    LIG   0.0000
   9 C9          -0.9901     3.6686     0.0483 C.3          1    LIG   0.0000
  10 C10          0.0426     1.4109     0.0126 C.2          1    LIG   0.0000
  11 N11          1.2808     1.8391     0.0060 N.2          1    LIG   0.0000
  12 N12          2.0968     0.8006    -0.0246 N.2          1    LIG   0.0000
  13 C13          1.4004    -0.3102    -0.0301 C.2          1    LIG   0.0000
  14 C14          1.9531    -1.7256    -0.0595 C.3          1    LIG   0.0000
  15 C15          3.4721    -1.6760    -0.0823 C.3          1    LIG   0.0000
  16 C16          4.0249    -3.0917    -0.1117 C.3          1    LIG   0.0000
  17 C17          3.9360    -0.9252    -1.3198 C.3          1    LIG   0.0000
  18 C18          3.9745    -0.9617     1.1618 C.3          1    LIG   0.0000
  19 N19          0.0889     0.0505    -0.0083 N.pl3        1    LIG   0.0000
  20 C20         -1.0627    -0.8618    -0.0041 C.3          1    LIG   0.0000
  21 C21         -1.4821    -1.1553    -1.4362 C.ar         1    LIG   0.0000
  22 C22         -1.6665    -2.4724    -1.8450 C.ar         1    LIG   0.0000
  23 C23         -2.0508    -2.7474    -3.1532 C.ar         1    LIG   0.0000
  24 C24         -2.2433    -1.6911    -4.0377 C.ar         1    LIG   0.0000
  25 N25         -2.6283    -1.9834    -5.3527 N.pl3        1    LIG   0.0000
  26 N26         -3.5697    -1.3649    -6.0243 N.2          1    LIG   0.0000
  27 C27         -3.6779    -1.8826    -7.2251 C.2          1    LIG   0.0000
  28 C28         -4.6550    -1.4403    -8.3012 C.3          1    LIG   0.0000
  29 C29         -2.7288    -2.9187    -7.3407 C.2          1    LIG   0.0000
  30 C30         -2.0882    -2.9518    -6.1427 C.2          1    LIG   0.0000
  31 C31         -0.9665    -3.9029    -5.7587 C.3          1    LIG   0.0000
  32 N32         -2.0595    -0.4278    -3.6250 N.ar         1    LIG   0.0000
  33 C33         -1.6904    -0.1427    -2.3674 C.ar         1    LIG   0.0000
  34 C34         -1.8509     1.3356     2.4643 C.ar         1    LIG   0.0000
  35 C35         -2.1625     0.9139     3.7525 C.ar         1    LIG   0.0000
  36 O36         -1.2858     1.1150     4.7588 O.3          1    LIG   0.0000
  37 H           -5.0513    -1.0210     6.3827 H            1    LIG   0.0000
  38 H           -5.6549    -0.1270     5.1567 H            1    LIG   0.0000
  39 H           -4.9649    -1.5747     4.8488 H            1    LIG   0.0000
  40 H           -5.1626    -0.3934     3.1840 H            1    LIG   0.0000
  41 H           -4.6363     0.3288     0.9589 H            1    LIG   0.0000
  42 H           -2.4316     0.7838    -0.5778 H            1    LIG   0.0000
  43 H           -3.1194     2.2328    -0.2710 H            1    LIG   0.0000
  44 H           -1.9033     4.0759     0.0615 H            1    LIG   0.0000
  45 H           -0.4861     3.9538     0.8635 H            1    LIG   0.0000
  46 H           -0.5013     3.9727    -0.7693 H            1    LIG   0.0000
  47 H            1.6226    -2.1956    -0.8779 H            1    LIG   0.0000
  48 H            1.6479    -2.2196     0.7547 H            1    LIG   0.0000
  49 H            5.0243    -3.0590    -0.1267 H            1    LIG   0.0000
  50 H            3.7197    -3.5856     0.7025 H            1    LIG   0.0000
  51 H            3.6944    -3.5616    -0.9301 H            1    LIG   0.0000
  52 H            4.9354    -0.8926    -1.3348 H            1    LIG   0.0000
  53 H            3.6055    -1.3952    -2.1383 H            1    LIG   0.0000
  54 H            3.5724     0.0061    -1.3005 H            1    LIG   0.0000
  55 H            4.9738    -0.9290     1.1468 H            1    LIG   0.0000
  56 H            3.6108    -0.0303     1.1811 H            1    LIG   0.0000
  57 H            3.6693    -1.4556     1.9759 H            1    LIG   0.0000
  58 H           -1.8235    -0.4359     0.4855 H            1    LIG   0.0000
  59 H           -0.8098    -1.7156     0.4508 H            1    LIG   0.0000
  60 H           -1.5226    -3.2214    -1.1982 H            1    LIG   0.0000
  61 H           -2.1869    -3.6914    -3.4537 H            1    LIG   0.0000
  62 H           -4.5265    -2.0012    -9.1191 H            1    LIG   0.0000
  63 H           -5.5911    -1.5487    -7.9664 H            1    LIG   0.0000
  64 H           -4.4906    -0.4800    -8.5264 H            1    LIG   0.0000
  65 H           -2.5627    -3.5040    -8.1343 H            1    LIG   0.0000
  66 H           -0.7668    -4.5105    -6.5274 H            1    LIG   0.0000
  67 H           -0.1478    -3.3770    -5.5281 H            1    LIG   0.0000
  68 H           -1.2468    -4.4470    -4.9679 H            1    LIG   0.0000
  69 H           -1.5632     0.8111    -2.0952 H            1    LIG   0.0000
  70 H           -0.9807     1.7898     2.2733 H            1    LIG   0.0000
  71 H           -0.4130     1.5685     4.5784 H            1    LIG   0.0000
@<TRIPOS>BOND
   1        1        2 1
   2        2        3 1
   3        3        4 ar
   4        4        5 ar
   5        5        6 ar
   6        6        7 1
   7        7        8 1
   8        8        9 1
   9        8       10 1
  10       10       11 2
  11       11       12 1
  12       12       13 2
  13       13       14 1
  14       14       15 1
  15       15       16 1
  16       15       17 1
  17       15       18 1
  18       13       19 1
  19       19       10 1
  20       19       20 1
  21       20       21 1
  22       21       22 ar
  23       22       23 ar
  24       23       24 ar
  25       24       25 1
  26       25       26 1
  27       26       27 2
  28       27       28 1
  29       27       29 1
  30       29       30 2
  31       30       25 1
  32       30       31 1
  33       24       32 ar
  34       32       33 ar
  35       33       21 ar
  36        6       34 ar
  37       34       35 ar
  38       35        3 ar
  39       35       36 1
  40        1       37 1
  41        1       38 1
  42        1       39 1
  43        4       40 1
  44        5       41 1
  45        7       42 1
  46        7       43 1
  47        9       44 1
  48        9       45 1
  49        9       46 1
  50       14       47 1
  51       14       48 1
  52       16       49 1
  53       16       50 1
  54       16       51 1
  55       17       52 1
  56       17       53 1
  57       17       54 1
  58       18       55 1
  59       18       56 1
  60       18       57 1
  61       20       58 1
  62       20       59 1
  63       22       60 1
  64       23       61 1
  65       28       62 1
  66       28       63 1
  67       28       64 1
  68       29       65 1
  69       31       66 1
  70       31       67 1
  71       31       68 1
  72       33       69 1
  73       34       70 1
  74       36       71 1

@<TRIPOS>MOLECULE

  71   74
SMALL
USER_CHARGES
@<TRIPOS>ATOM
   1 C1          -4.9278    -0.7587     5.4256 C.3          1    LIG   0.0000
   2 O2          -3.6672    -0.1243     5.2676 O.3          1    LIG   0.0000
   3 C3          -3.3741     0.2819     4.0141 C.ar         1    LIG   0.0000
   4 C4          -4.2927     0.0613     2.9930 C.ar         1    LIG   0.0000
   5 C5          -3.9854     0.4813     1.7026 C.ar         1    LIG   0.0000
   6 C6          -2.7727     1.1135     1.4469 C.ar         1    LIG   0.0000
   7 C7          -2.4350     1.5722     0.0375 C.3          1    LIG   0.0000
   8 N8          -1.1074     2.2034     0.0325 N.pl3        1    LIG   0.0000
   9 C9          -0.9901     3.6686     0.0483 C.3          1    LIG   0.0000
  10 C10          0.0426     1.4109     0.0126 C.2          1    LIG   0.0000
  11 N11          1.2808     1.8391     0.0060 N.2          1    LIG   0.0000
  12 N12          2.0968     0.8006    -0.0246 N.2          1    LIG   0.0000
  13 C13          1.4004    -0.3102    -0.0301 C.2          1    LIG   0.0000
  14 C14          1.9531    -1.7256    -0.0595 C.3          1    LIG   0.0000
  15 C15          3.3992    -1.7147     0.4085 C.3          1    LIG   0.0000
  16 C16          3.9520    -3.1303     0.3792 C.3          1    LIG   0.0000
  17 C17          4.2232    -0.8298    -0.5126 C.3          1    LIG   0.0000
  18 C18          3.4686    -1.1730     1.8270 C.3          1    LIG   0.0000
  19 N19          0.0889     0.0505    -0.0083 N.pl3        1    LIG   0.0000
  20 C20         -1.0627    -0.8618    -0.0041 C.3          1    LIG   0.0000
  21 C21         -1.4821    -1.1553    -1.4362 C.ar         1    LIG   0.0000
  22 C22         -0.7866    -0.5741    -2.4918 C.ar         1    LIG   0.0000
  23 C23         -1.1648    -0.8392    -3.8038 C.ar         1    LIG   0.0000
  24 C24         -2.2429    -1.6864    -4.0388 C.ar         1    LIG   0.0000
  25 N25         -2.6137    -1.9426    -5.3654 N.pl3        1    LIG   0.0000
  26 N26         -2.7255    -1.0408    -6.3108 N.2          1    LIG   0.0000
  27 C27         -3.0894    -1.6122    -7.4346 C.2          1    LIG   0.0000
  28 C28         -3.3247    -0.9045    -8.7584 C.3          1    LIG   0.0000
  29 C29         -3.2221    -2.9956    -7.1979 C.2          1    LIG   0.0000
  30 C30         -2.9149    -3.1645    -5.8850 C.2          1    LIG   0.0000
  31 C31         -2.9086    -4.4864    -5.1348 C.3          1    LIG   0.0000
  32 N32         -2.9018    -2.2365    -3.0076 N.ar         1    LIG   0.0000
  33 C33         -2.5511    -1.9940    -1.7358 C.ar         1    LIG   0.0000
  34 C34         -1.8509     1.3356     2.4643 C.ar         1    LIG   0.0000
  35 C35         -2.1625     0.9139     3.7525 C.ar         1    LIG   0.0000
  36 O36         -1.2858     1.1150     4.7588 O.3          1    LIG   0.0000
  37 H           -5.0513    -1.0210     6.3827 H            1    LIG   0.0000
  38 H           -5.6549    -0.1270     5.1567 H            1    LIG   0.0000
  39 H           -4.9649    -1.5747     4.8488 H            1    LIG   0.0000
  40 H           -5.1626    -0.3934     3.1840 H            1    LIG   0.0000
  41 H           -4.6363     0.3288     0.9589 H            1    LIG   0.0000
  42 H           -2.4316     0.7838    -0.5778 H            1    LIG   0.0000
  43 H           -3.1194     2.2328    -0.2710 H            1    LIG   0.0000
  44 H           -1.9033     4.0759     0.0615 H            1    LIG   0.0000
  45 H           -0.4861     3.9538     0.8635 H            1    LIG   0.0000
  46 H           -0.5013     3.9727    -0.7693 H            1    LIG   0.0000
  47 H            1.9075    -2.0820    -0.9927 H            1    LIG   0.0000
  48 H            1.4110    -2.3078     0.5465 H            1    LIG   0.0000
  49 H            4.9034    -3.1231     0.6870 H            1    LIG   0.0000
  50 H            3.4099    -3.7125     0.9852 H            1    LIG   0.0000
  51 H            3.9063    -3.4867    -0.5541 H            1    LIG   0.0000
  52 H            5.1746    -0.8226    -0.2047 H            1    LIG   0.0000
  53 H            4.1775    -1.1862    -1.4458 H            1    LIG   0.0000
  54 H            3.8595     0.1015    -0.4933 H            1    LIG   0.0000
  55 H            4.4200    -1.1658     2.1349 H            1    LIG   0.0000
  56 H            3.1050    -0.2417     1.8464 H            1    LIG   0.0000
  57 H            2.9266    -1.7552     2.4330 H            1    LIG   0.0000
  58 H           -1.8235    -0.4359     0.4855 H            1    LIG   0.0000
  59 H           -0.8098    -1.7156     0.4508 H            1    LIG   0.0000
  60 H           -0.0147     0.0343    -2.3072 H            1    LIG   0.0000
  61 H           -0.6686    -0.4265    -4.5676 H            1    LIG   0.0000
  62 H           -3.5933    -1.5739    -9.4511 H            1    LIG   0.0000
  63 H           -4.0522    -0.2271    -8.6496 H            1    LIG   0.0000
  64 H           -2.4833    -0.4468    -9.0459 H            1    LIG   0.0000
  65 H           -3.4859    -3.7015    -7.8553 H            1    LIG   0.0000
  66 H           -3.1687    -5.2243    -5.7575 H            1    LIG   0.0000
  67 H           -1.9920    -4.6613    -4.7751 H            1    LIG   0.0000
  68 H           -3.5610    -4.4434    -4.3781 H            1    LIG   0.0000
  69 H           -3.0652    -2.4221    -0.9925 H            1    LIG   0.0000
  70 H           -0.9807     1.7898     2.2733 H            1    LIG   0.0000
  71 H           -0.4130     1.5685     4.5784 H            1    LIG   0.0000
@<TRIPOS>BOND
   1        1        2 1
   2        2        3 1
   3        3        4 ar
   4        4        5 ar
   5        5        6 ar
   6        6        7 1
   7        7        8 1
   8        8        9 1
   9        8       10 1
  10       10       11 2
  11       11       12 1
  12       12       13 2
  13       13       14 1
  14       14       15 1
  15       15       16 1
  16       15       17 1
  17       15       18 1
  18       13       19 1
  19       19       10 1
  20       19       20 1
  21       20       21 1
  22       21       22 ar
  23       22       23 ar
  24       23       24 ar
  25       24       25 1
  26       25       26 1
  27       26       27 2
  28       27       28 1
  29       27       29 1
  30       29       30 2
  31       30       25 1
  32       30       31 1
  33       24       32 ar
  34       32       33 ar
  35       33       21 ar
  36        6       34 ar
  37       34       35 ar
  38       35        3 ar
  39       35       36 1
  40        1       37 1
  41        1       38 1
  42        1       39 1
  43        4       40 1
  44        5       41 1
  45        7       42 1
  46        7       43 1
  47        9       44 1
  48        9       45 1
  49        9       46 1
  50       14       47 1
  51       14       48 1
  52       16       49 1
  53       16       50 1
  54       16       51 1
  55       17       52 1
  56       17       53 1
  57       17       54 1
  58       18       55 1
  59       18       56 1
  60       18       57 1
  61       20       58 1
  62       20       59 1
  63       22       60 1
  64       23       61 1
  65       28       62 1
  66       28       63 1
  67       28       64 1
  68       29       65 1
  69       31       66 1
  70       31       67 1
  71       31       68 1
  72       33       69 1
  73       34       70 1
  74       36       71 1

@<TRIPOS>MOLECULE

  71   74
SMALL
USER_CHARGES
@<TRIPOS>ATOM
   1 C1          -4.9278    -0.7587     5.4256 C.3          1    LIG   0.0000
   2 O2          -3.6672    -0.1243     5.2676 O.3          1    LIG   0.0000
   3 C3          -3.3741     0.2819     4.0141 C.ar         1    LIG   0.0000
   4 C4          -4.2927     0.0613     2.9930 C.ar         1    LIG   0.0000
   5 C5          -3.9854     0.4813     1.7026 C.ar         1    LIG   0.0000
   6 C6          -2.7727     1.1135     1.4469 C.ar         1    LIG   0.0000
   7 C7          -2.4350     1.5722     0.0375 C.3          1    LIG   0.0000
   8 N8          -1.1074     2.2034     0.0325 N.pl3        1    LIG   0.0000
   9 C9          -0.9901     3.6686     0.0483 C.3          1    LIG   0.0000
  10 C10          0.0426     1.4109     0.0126 C.2          1    LIG   0.0000
  11 N11          1.2808     1.8391     0.0060 N.2          1    LIG   0.0000
  12 N12          2.0968     0.8006    -0.0246 N.2          1    LIG   0.0000
  13 C13          1.4004    -0.3102    -0.0301 C.2          1    LIG   0.0000
  14 C14          1.9531    -1.7256    -0.0595 C.3          1    LIG   0.0000
  15 C15          3.3840    -1.7003    -0.5715 C.3          1    LIG   0.0000
  16 C16          3.9368    -3.1159    -0.6009 C.3          1    LIG   0.0000
  17 C17          3.4097    -1.1171    -1.9750 C.3          1    LIG   0.0000
  18 C18          4.2365    -0.8425     0.3492 C.3          1    LIG   0.0000
  19 N19          0.0889     0.0505    -0.0083 N.pl3        1    LIG   0.0000
  20 C20         -1.0627    -0.8618    -0.0041 C.3          1    LIG   0.0000
  21 C21         -1.4821    -1.1553    -1.4362 C.ar         1    LIG   0.0000
  22 C22         -1.6783    -0.1045    -2.3268 C.ar         1    LIG   0.0000
  23 C23         -2.0612    -0.3665    -3.6381 C.ar         1    LIG   0.0000
  24 C24         -2.2450    -1.6861    -4.0382 C.ar         1    LIG   0.0000
  25 N25         -2.6327    -1.9346    -5.3615 N.pl3        1    LIG   0.0000
  26 N26         -2.1176    -2.8513    -6.1449 N.2          1    LIG   0.0000
  27 C27         -2.7047    -2.8201    -7.3180 C.2          1    LIG   0.0000
  28 C28         -2.3880    -3.7247    -8.4970 C.3          1    LIG   0.0000
  29 C29         -3.6797    -1.8022    -7.2911 C.2          1    LIG   0.0000
  30 C30         -3.6041    -1.2680    -6.0439 C.2          1    LIG   0.0000
  31 C31         -4.4570    -0.1287    -5.5099 C.3          1    LIG   0.0000
  32 N32         -2.0520    -2.6857    -3.1644 N.ar         1    LIG   0.0000
  33 C33         -1.6813    -2.4531    -1.8965 C.ar         1    LIG   0.0000
  34 C34         -1.8509     1.3356     2.4643 C.ar         1    LIG   0.0000
  35 C35         -2.1625     0.9139     3.7525 C.ar         1    LIG   0.0000
  36 O36         -1.2858     1.1150     4.7588 O.3          1    LIG   0.0000
  37 H           -5.0513    -1.0210     6.3827 H            1    LIG   0.0000
  38 H           -5.6549    -0.1270     5.1567 H            1    LIG   0.0000
  39 H           -4.9649    -1.5747     4.8488 H            1    LIG   0.0000
  40 H           -5.1626    -0.3934     3.1840 H            1    LIG   0.0000
  41 H           -4.6363     0.3288     0.9589 H            1    LIG   0.0000
  42 H           -2.4316     0.7838    -0.5778 H            1    LIG   0.0000
  43 H           -3.1194     2.2328    -0.2710 H            1    LIG   0.0000
  44 H           -1.9033     4.0759     0.0615 H            1    LIG   0.0000
  45 H           -0.4861     3.9538     0.8635 H            1    LIG   0.0000
  46 H           -0.5013     3.9727    -0.7693 H            1    LIG   0.0000
  47 H            1.3922    -2.2900    -0.6652 H            1    LIG   0.0000
  48 H            1.9362    -2.1093     0.8639 H            1    LIG   0.0000
  49 H            4.8782    -3.0992    -0.9378 H            1    LIG   0.0000
  50 H            3.9199    -3.4996     0.3224 H            1    LIG   0.0000
  51 H            3.3759    -3.6803    -1.2067 H            1    LIG   0.0000
  52 H            4.3511    -1.1005    -2.3119 H            1    LIG   0.0000
  53 H            2.8488    -1.6815    -2.5807 H            1    LIG   0.0000
  54 H            3.0460    -0.1858    -1.9557 H            1    LIG   0.0000
  55 H            5.1779    -0.8258     0.0123 H            1    LIG   0.0000
  56 H            3.8729     0.0888     0.3686 H            1    LIG   0.0000
  57 H            4.2197    -1.2261     1.2726 H            1    LIG   0.0000
  58 H           -1.8235    -0.4359     0.4855 H            1    LIG   0.0000
  59 H           -0.8098    -1.7156     0.4508 H            1    LIG   0.0000
  60 H           -1.5441     0.8391    -2.0242 H            1    LIG   0.0000
  61 H           -2.2025     0.3835    -4.2844 H            1    LIG   0.0000
  62 H           -2.9815    -3.4892    -9.2666 H            1    LIG   0.0000
  63 H           -1.4321    -3.6024    -8.7637 H            1    LIG   0.0000
  64 H           -2.5421    -4.6778    -8.2367 H            1    LIG   0.0000
  65 H           -4.2951    -1.5313    -8.0312 H            1    LIG   0.0000
  66 H           -5.0903     0.1754    -6.2216 H            1    LIG   0.0000
  67 H           -4.9754    -0.4445    -4.7152 H            1    LIG   0.0000
  68 H           -3.8665     0.6324    -5.2417 H            1    LIG   0.0000
  69 H           -1.5463    -3.2234    -1.2732 H            1    LIG   0.0000
  70 H           -0.9807     1.7898     2.2733 H            1    LIG   0.0000
  71 H           -0.4130     1.5685     4.5784 H            1    LIG   0.0000
@<TRIPOS>BOND
   1        1        2 1
   2        2        3 1
   3        3        4 ar
   4        4        5 ar
   5        5        6 ar
   6        6        7 1
   7        7        8 1
   8        8        9 1
   9        8       10 1
  10       10       11 2
  11       11       12 1
  12       12       13 2
  13       13       14 1
  14       14       15 1
  15       15       16 1
  16       15       17 1
  17       15       18 1
  18       13       19 1
  19       19       10 1
  20       19       20 1
  21       20       21 1
  22       21       22 ar
  23       22       23 ar
  24       23       24 ar
  25       24       25 1
  26       25       26 1
  27       26       27 2
  28       27       28 1
  29       27       29 1
  30       29       30 2
  31       30       25 1
  32       30       31 1
  33       24       32 ar
  34       32       33 ar
  35       33       21 ar
  36        6       34 ar
  37       34       35 ar
  38       35        3 ar
  39       35       36 1
  40        1       37 1
  41        1       38 1
  42        1       39 1
  43        4       40 1
  44        5       41 1
  45        7       42 1
  46        7       43 1
  47        9       44 1
  48        9       45 1
  49        9       46 1
  50       14       47 1
  51       14       48 1
  52       16       49 1
  53       16       50 1
  54       16       51 1
  55       17       52 1
  56       17       53 1
  57       17       54 1
  58       18       55 1
  59       18       56 1
  60       18       57 1
  61       20       58 1
  62       20       59 1
  63       22       60 1
  64       23       61 1
  65       28       62 1
  66       28       63 1
  67       28       64 1
  68       29       65 1
  69       31       66 1
  70       31       67 1
  71       31       68 1
  72       33       69 1
  73       34       70 1
  74       36       71 1

@<TRIPOS>MOLECULE

  71   74
SMALL
USER_CHARGES
@<TRIPOS>ATOM
   1 C1          -4.6745    -1.1201     5.3677 C.3          1    LIG   0.0000
   2 O2          -3.6672    -0.1243     5.2676 O.3          1    LIG   0.0000
   3 C3          -3.3741     0.2819     4.0141 C.ar         1    LIG   0.0000
   4 C4          -4.2927     0.0613     2.9930 C.ar         1    LIG   0.0000
   5 C5          -3.9854     0.4813     1.7026 C.ar         1    LIG   0.0000
   6 C6          -2.7727     1.1135     1.4469 C.ar         1    LIG   0.0000
   7 C7          -2.4350     1.5722     0.0375 C.3          1    LIG   0.0000
   8 N8          -1.1074     2.2034     0.0325 N.pl3        1    LIG   0.0000
   9 C9          -0.9901     3.6686     0.0483 C.3          1    LIG   0.0000
  10 C10          0.0426     1.4109     0.0126 C.2          1    LIG   0.0000
  11 N11          1.2808     1.8391     0.0060 N.2          1    LIG   0.0000
  12 N12          2.0968     0.8006    -0.0246 N.2          1    LIG   0.0000
  13 C13          1.4004    -0.3102    -0.0301 C.2          1    LIG   0.0000
  14 C14          1.9531    -1.7256    -0.0595 C.3          1    LIG   0.0000
  15 C15          3.4721    -1.6760    -0.0823 C.3          1    LIG   0.0000
  16 C16          4.0249    -3.0917    -0.1117 C.3          1    LIG   0.0000
  17 C17          3.9360    -0.9252    -1.3198 C.3          1    LIG   0.0000
  18 C18          3.9745    -0.9617     1.1618 C.3          1    LIG   0.0000
  19 N19          0.0889     0.0505    -0.0083 N.pl3        1    LIG   0.0000
  20 C20         -1.0627    -0.8618    -0.0041 C.3          1    LIG   0.0000
  21 C21         -1.4821    -1.1553    -1.4362 C.ar         1    LIG   0.0000
  22 C22         -2.5582    -2.0029    -1.6800 C.ar         1    LIG   0.0000
  23 C23         -2.9472    -2.2747    -2.9875 C.ar         1    LIG   0.0000
  24 C24         -2.2454    -1.6908    -4.0372 C.ar         1    LIG   0.0000
  25 N25         -2.6474    -1.9753    -5.3488 N.pl3        1    LIG   0.0000
  26 N26         -1.8495    -2.3234    -6.3295 N.2          1    LIG   0.0000
  27 C27         -2.5443    -2.5171    -7.4256 C.2          1    LIG   0.0000
  28 C28         -1.9821    -2.9295    -8.7756 C.3          1    LIG   0.0000
  29 C29         -3.9016    -2.2766    -7.1301 C.2          1    LIG   0.0000
  30 C30         -3.9262    -1.9381    -5.8143 C.2          1    LIG   0.0000
  31 C31         -5.1657    -1.5831    -5.0092 C.3          1    LIG   0.0000
  32 N32         -1.2098    -0.8770    -3.7818 N.ar         1    LIG   0.0000
  33 C33         -0.8207    -0.6018    -2.5280 C.ar         1    LIG   0.0000
  34 C34         -1.8509     1.3356     2.4643 C.ar         1    LIG   0.0000
  35 C35         -2.1625     0.9139     3.7525 C.ar         1    LIG   0.0000
  36 O36         -1.2858     1.1150     4.7588 O.3          1    LIG   0.0000
  37 H           -4.8188    -1.3529     6.3295 H            1    LIG   0.0000
  38 H           -5.5270    -0.7723     4.9774 H            1    LIG   0.0000
  39 H           -4.3872    -1.9365     4.8667 H            1    LIG   0.0000
  40 H           -5.1626    -0.3934     3.1840 H            1    LIG   0.0000
  41 H           -4.6363     0.3288     0.9589 H            1    LIG   0.0000
  42 H           -2.4316     0.7838    -0.5778 H            1    LIG   0.0000
  43 H           -3.1194     2.2328    -0.2710 H            1    LIG   0.0000
  44 H           -1.9033     4.0759     0.0615 H            1    LIG   0.0000
  45 H           -0.4861     3.9538     0.8635 H            1    LIG   0.0000
  46 H           -0.5013     3.9727    -0.7693 H            1    LIG   0.0000
  47 H            1.6226    -2.1956    -0.8779 H            1    LIG   0.0000
  48 H            1.6479    -2.2196     0.7547 H            1    LIG   0.0000
  49 H            5.0243    -3.0590    -0.1267 H            1    LIG   0.0000
  50 H            3.7197    -3.5856     0.7025 H            1    LIG   0.0000
  51 H            3.6944    -3.5616    -0.9301 H            1    LIG   0.0000
  52 H            4.9354    -0.8926    -1.3348 H            1    LIG   0.0000
  53 H            3.6055    -1.3952    -2.1383 H            1    LIG   0.0000
  54 H            3.5724     0.0061    -1.3005 H            1    LIG   0.0000
  55 H            4.9738    -0.9290     1.1468 H            1    LIG   0.0000
  56 H            3.6108    -0.0303     1.1811 H            1    LIG   0.0000
  57 H            3.6693    -1.4556     1.9759 H            1    LIG   0.0000
  58 H           -1.8235    -0.4359     0.4855 H            1    LIG   0.0000
  59 H           -0.8098    -1.7156     0.4508 H            1    LIG   0.0000
  60 H           -3.0520    -2.4167    -0.9152 H            1    LIG   0.0000
  61 H           -3.7208    -2.8815    -3.1704 H            1    LIG   0.0000
  62 H           -2.7275    -3.0066    -9.4377 H            1    LIG   0.0000
  63 H           -1.3280    -2.2410    -9.0887 H            1    LIG   0.0000
  64 H           -1.5207    -3.8125    -8.6889 H            1    LIG   0.0000
  65 H           -4.6797    -2.3413    -7.7550 H            1    LIG   0.0000
  66 H           -5.9720    -1.6346    -5.5984 H            1    LIG   0.0000
  67 H           -5.2657    -2.2265    -4.2502 H            1    LIG   0.0000
  68 H           -5.0747    -0.6545    -4.6492 H            1    LIG   0.0000
  69 H           -0.0443     0.0098    -2.3758 H            1    LIG   0.0000
  70 H           -0.9807     1.7898     2.2733 H            1    LIG   0.0000
  71 H           -0.4130     1.5685     4.5784 H            1    LIG   0.0000
@<TRIPOS>BOND
   1        1        2 1
   2        2        3 1
   3        3        4 ar
   4        4        5 ar
   5        5        6 ar
   6        6        7 1
   7        7        8 1
   8        8        9 1
   9        8       10 1
  10       10       11 2
  11       11       12 1
  12       12       13 2
  13       13       14 1
  14       14       15 1
  15       15       16 1
  16       15       17 1
  17       15       18 1
  18       13       19 1
  19       19       10 1
  20       19       20 1
  21       20       21 1
  22       21       22 ar
  23       22       23 ar
  24       23       24 ar
  25       24       25 1
  26       25       26 1
  27       26       27 2
  28       27       28 1
  29       27       29 1
  30       29       30 2
  31       30       25 1
  32       30       31 1
  33       24       32 ar
  34       32       33 ar
  35       33       21 ar
  36        6       34 ar
  37       34       35 ar
  38       35        3 ar
  39       35       36 1
  40        1       37 1
  41        1       38 1
  42        1       39 1
  43        4       40 1
  44        5       41 1
  45        7       42 1
  46        7       43 1
  47        9       44 1
  48        9       45 1
  49        9       46 1
  50       14       47 1
  51       14       48 1
  52       16       49 1
  53       16       50 1
  54       16       51 1
  55       17       52 1
  56       17       53 1
  57       17       54 1
  58       18       55 1
  59       18       56 1
  60       18       57 1
  61       20       58 1
  62       20       59 1
  63       22       60 1
  64       23       61 1
  65       28       62 1
  66       28       63 1
  67       28       64 1
  68       29       65 1
  69       31       66 1
  70       31       67 1
  71       31       68 1
  72       33       69 1
  73       34       70 1
  74       36       71 1

@<TRIPOS>MOLECULE

  71   74
SMALL
USER_CHARGES
@<TRIPOS>ATOM
   1 C1          -2.7199     0.1299     6.2437 C.3          1    LIG   0.0000
   2 O2          -3.7059    -0.1316     5.2560 O.3          1    LIG   0.0000
   3 C3          -3.3993     0.2767     4.0063 C.ar         1    LIG   0.0000
   4 C4          -2.1805     0.9054     3.7737 C.ar         1    LIG   0.0000
   5 C5          -1.8696     1.3250     2.4841 C.ar         1    LIG   0.0000
   6 C6          -2.7727     1.1135     1.4469 C.ar         1    LIG   0.0000
   7 C7          -2.4350     1.5722     0.0375 C.3          1    LIG   0.0000
   8 N8          -1.1074     2.2034     0.0325 N.pl3        1    LIG   0.0000
   9 C9          -0.9901     3.6686     0.0483 C.3          1    LIG   0.0000
  10 C10          0.0426     1.4109     0.0126 C.2          1    LIG   0.0000
  11 N11          1.2808     1.8391     0.0060 N.2          1    LIG   0.0000
  12 N12          2.0968     0.8006    -0.0246 N.2          1    LIG   0.0000
  13 C13          1.4004    -0.3102    -0.0301 C.2          1    LIG   0.0000
  14 C14          1.9531    -1.7256    -0.0595 C.3          1    LIG   0.0000
  15 C15          3.4721    -1.6760    -0.0823 C.3          1    LIG   0.0000
  16 C16          4.0249    -3.0917    -0.1117 C.3          1    LIG   0.0000
  17 C17          3.9360    -0.9252    -1.3198 C.3          1    LIG   0.0000
  18 C18          3.9745    -0.9617     1.1618 C.3          1    LIG   0.0000
  19 N19          0.0889     0.0505    -0.0083 N.pl3        1    LIG   0.0000
  20 C20         -1.0627    -0.8618    -0.0041 C.3          1    LIG   0.0000
  21 C21         -1.4821    -1.1553    -1.4362 C.ar         1    LIG   0.0000
  22 C22         -1.6665    -2.4724    -1.8450 C.ar         1    LIG   0.0000
  23 C23         -2.0508    -2.7474    -3.1532 C.ar         1    LIG   0.0000
  24 C24         -2.2433    -1.6911    -4.0377 C.ar         1    LIG   0.0000
  25 N25         -2.6283    -1.9834    -5.3527 N.pl3        1    LIG   0.0000
  26 N26         -2.8288    -3.1857    -5.8364 N.2          1    LIG   0.0000
  27 C27         -3.1792    -3.1085    -7.0986 C.2          1    LIG   0.0000
  28 C28         -3.4971    -4.2832    -8.0083 C.3          1    LIG   0.0000
  29 C29         -3.2096    -1.7463    -7.4606 C.2          1    LIG   0.0000
  30 C30         -2.8571    -1.0699    -6.3359 C.2          1    LIG   0.0000
  31 C31         -2.7418     0.4401    -6.2043 C.3          1    LIG   0.0000
  32 N32         -2.0595    -0.4278    -3.6250 N.ar         1    LIG   0.0000
  33 C33         -1.6904    -0.1427    -2.3674 C.ar         1    LIG   0.0000
  34 C34         -3.9927     0.4861     1.6748 C.ar         1    LIG   0.0000
  35 C35         -4.2990     0.0686     2.9655 C.ar         1    LIG   0.0000
  36 O36         -5.4766    -0.5414     3.2158 O.3          1    LIG   0.0000
  37 H           -3.0379    -0.2075     7.1297 H            1    LIG   0.0000
  38 H           -1.8691    -0.3337     5.9963 H            1    LIG   0.0000
  39 H           -2.5582     1.1151     6.3007 H            1    LIG   0.0000
  40 H           -1.5359     1.0538     4.5238 H            1    LIG   0.0000
  41 H           -0.9971     1.7786     2.3026 H            1    LIG   0.0000
  42 H           -2.4316     0.7838    -0.5778 H            1    LIG   0.0000
  43 H           -3.1194     2.2328    -0.2710 H            1    LIG   0.0000
  44 H           -1.9033     4.0759     0.0615 H            1    LIG   0.0000
  45 H           -0.4861     3.9538     0.8635 H            1    LIG   0.0000
  46 H           -0.5013     3.9727    -0.7693 H            1    LIG   0.0000
  47 H            1.6226    -2.1956    -0.8779 H            1    LIG   0.0000
  48 H            1.6479    -2.2196     0.7547 H            1    LIG   0.0000
  49 H            5.0243    -3.0590    -0.1267 H            1    LIG   0.0000
  50 H            3.7197    -3.5856     0.7025 H            1    LIG   0.0000
  51 H            3.6944    -3.5616    -0.9301 H            1    LIG   0.0000
  52 H            4.9354    -0.8926    -1.3348 H            1    LIG   0.0000
  53 H            3.6055    -1.3952    -2.1383 H            1    LIG   0.0000
  54 H            3.5724     0.0061    -1.3005 H            1    LIG   0.0000
  55 H            4.9738    -0.9290     1.1468 H            1    LIG   0.0000
  56 H            3.6108    -0.0303     1.1811 H            1    LIG   0.0000
  57 H            3.6693    -1.4556     1.9759 H            1    LIG   0.0000
  58 H           -1.8235    -0.4359     0.4855 H            1    LIG   0.0000
  59 H           -0.8098    -1.7156     0.4508 H            1    LIG   0.0000
  60 H           -1.5226    -3.2214    -1.1982 H            1    LIG   0.0000
  61 H           -2.1869    -3.6914    -3.4537 H            1    LIG   0.0000
  62 H           -3.7348    -3.9449    -8.9188 H            1    LIG   0.0000
  63 H           -2.6978    -4.8806    -8.0729 H            1    LIG   0.0000
  64 H           -4.2679    -4.7972    -7.6319 H            1    LIG   0.0000
  65 H           -3.4411    -1.3605    -8.3536 H            1    LIG   0.0000
  66 H           -2.9654     0.8690    -7.0795 H            1    LIG   0.0000
  67 H           -3.3772     0.7630    -5.5029 H            1    LIG   0.0000
  68 H           -1.8070     0.6815    -5.9439 H            1    LIG   0.0000
  69 H           -1.5632     0.8111    -2.0952 H            1    LIG   0.0000
  70 H           -4.6375     0.3381     0.9249 H            1    LIG   0.0000
  71 H           -6.1283    -0.6945     2.4728 H            1    LIG   0.0000
@<TRIPOS>BOND
   1        1        2 1
   2        2        3 1
   3        3        4 ar
   4        4        5 ar
   5        5        6 ar
   6        6        7 1
   7        7        8 1
   8        8        9 1
   9        8       10 1
  10       10       11 2
  11       11       12 1
  12       12       13 2
  13       13       14 1
  14       14       15 1
  15       15       16 1
  16       15       17 1
  17       15       18 1
  18       13       19 1
  19       19       10 1
  20       19       20 1
  21       20       21 1
  22       21       22 ar
  23       22       23 ar
  24       23       24 ar
  25       24       25 1
  26       25       26 1
  27       26       27 2
  28       27       28 1
  29       27       29 1
  30       29       30 2
  31       30       25 1
  32       30       31 1
  33       24       32 ar
  34       32       33 ar
  35       33       21 ar
  36        6       34 ar
  37       34       35 ar
  38       35        3 ar
  39       35       36 1
  40        1       37 1
  41        1       38 1
  42        1       39 1
  43        4       40 1
  44        5       41 1
  45        7       42 1
  46        7       43 1
  47        9       44 1
  48        9       45 1
  49        9       46 1
  50       14       47 1
  51       14       48 1
  52       16       49 1
  53       16       50 1
  54       16       51 1
  55       17       52 1
  56       17       53 1
  57       17       54 1
  58       18       55 1
  59       18       56 1
  60       18       57 1
  61       20       58 1
  62       20       59 1
  63       22       60 1
  64       23       61 1
  65       28       62 1
  66       28       63 1
  67       28       64 1
  68       29       65 1
  69       31       66 1
  70       31       67 1
  71       31       68 1
  72       33       69 1
  73       34       70 1
  74       36       71 1

@<TRIPOS>MOLECULE

  71   74
SMALL
USER_CHARGES
@<TRIPOS>ATOM
   1 C1          -2.7199     0.1299     6.2437 C.3          1    LIG   0.0000
   2 O2          -3.7059    -0.1316     5.2560 O.3          1    LIG   0.0000
   3 C3          -3.3993     0.2767     4.0063 C.ar         1    LIG   0.0000
   4 C4          -2.1805     0.9054     3.7737 C.ar         1    LIG   0.0000
   5 C5          -1.8696     1.3250     2.4841 C.ar         1    LIG   0.0000
   6 C6          -2.7727     1.1135     1.4469 C.ar         1    LIG   0.0000
   7 C7          -2.4350     1.5722     0.0375 C.3          1    LIG   0.0000
   8 N8          -1.1074     2.2034     0.0325 N.pl3        1    LIG   0.0000
   9 C9          -0.9901     3.6686     0.0483 C.3          1    LIG   0.0000
  10 C10          0.0426     1.4109     0.0126 C.2          1    LIG   0.0000
  11 N11          1.2808     1.8391     0.0060 N.2          1    LIG   0.0000
  12 N12          2.0968     0.8006    -0.0246 N.2          1    LIG   0.0000
  13 C13          1.4004    -0.3102    -0.0301 C.2          1    LIG   0.0000
  14 C14          1.9531    -1.7256    -0.0595 C.3          1    LIG   0.0000
  15 C15          3.4721    -1.6760    -0.0823 C.3          1    LIG   0.0000
  16 C16          4.0249    -3.0917    -0.1117 C.3          1    LIG   0.0000
  17 C17          3.9360    -0.9252    -1.3198 C.3          1    LIG   0.0000
  18 C18          3.9745    -0.9617     1.1618 C.3          1    LIG   0.0000
  19 N19          0.0889     0.0505    -0.0083 N.pl3        1    LIG   0.0000
  20 C20         -1.0627    -0.8618    -0.0041 C.3          1    LIG   0.0000
  21 C21         -1.4821    -1.1553    -1.4362 C.ar         1    LIG   0.0000
  22 C22         -1.6665    -2.4724    -1.8450 C.ar         1    LIG   0.0000
  23 C23         -2.0508    -2.7474    -3.1532 C.ar         1    LIG   0.0000
  24 C24         -2.2433    -1.6911    -4.0377 C.ar         1    LIG   0.0000
  25 N25         -2.6283    -1.9834    -5.3527 N.pl3        1    LIG   0.0000
  26 N26         -3.5697    -1.3649    -6.0243 N.2          1    LIG   0.0000
  27 C27         -3.6779    -1.8826    -7.2251 C.2          1    LIG   0.0000
  28 C28         -4.6550    -1.4403    -8.3012 C.3          1    LIG   0.0000
  29 C29         -2.7288    -2.9187    -7.3407 C.2          1    LIG   0.0000
  30 C30         -2.0882    -2.9518    -6.1427 C.2          1    LIG   0.0000
  31 C31         -0.9665    -3.9029    -5.7587 C.3          1    LIG   0.0000
  32 N32         -2.0595    -0.4278    -3.6250 N.ar         1    LIG   0.0000
  33 C33         -1.6904    -0.1427    -2.3674 C.ar         1    LIG   0.0000
  34 C34         -3.9927     0.4861     1.6748 C.ar         1    LIG   0.0000
  35 C35         -4.2990     0.0686     2.9655 C.ar         1    LIG   0.0000
  36 O36         -5.4766    -0.5414     3.2158 O.3          1    LIG   0.0000
  37 H           -3.0379    -0.2075     7.1297 H            1    LIG   0.0000
  38 H           -1.8691    -0.3337     5.9963 H            1    LIG   0.0000
  39 H           -2.5582     1.1151     6.3007 H            1    LIG   0.0000
  40 H           -1.5359     1.0538     4.5238 H            1    LIG   0.0000
  41 H           -0.9971     1.7786     2.3026 H            1    LIG   0.0000
  42 H           -2.4316     0.7838    -0.5778 H            1    LIG   0.0000
  43 H           -3.1194     2.2328    -0.2710 H            1    LIG   0.0000
  44 H           -1.9033     4.0759     0.0615 H            1    LIG   0.0000
  45 H           -0.4861     3.9538     0.8635 H            1    LIG   0.0000
  46 H           -0.5013     3.9727    -0.7693 H            1    LIG   0.0000
  47 H            1.6226    -2.1956    -0.8779 H            1    LIG   0.0000
  48 H            1.6479    -2.2196     0.7547 H            1    LIG   0.0000
  49 H            5.0243    -3.0590    -0.1267 H            1    LIG   0.0000
  50 H            3.7197    -3.5856     0.7025 H            1    LIG   0.0000
  51 H            3.6944    -3.5616    -0.9301 H            1    LIG   0.0000
  52 H            4.9354    -0.8926    -1.3348 H            1    LIG   0.0000
  53 H            3.6055    -1.3952    -2.1383 H            1    LIG   0.0000
  54 H            3.5724     0.0061    -1.3005 H            1    LIG   0.0000
  55 H            4.9738    -0.9290     1.1468 H            1    LIG   0.0000
  56 H            3.6108    -0.0303     1.1811 H            1    LIG   0.0000
  57 H            3.6693    -1.4556     1.9759 H            1    LIG   0.0000
  58 H           -1.8235    -0.4359     0.4855 H            1    LIG   0.0000
  59 H           -0.8098    -1.7156     0.4508 H            1    LIG   0.0000
  60 H           -1.5226    -3.2214    -1.1982 H            1    LIG   0.0000
  61 H           -2.1869    -3.6914    -3.4537 H            1    LIG   0.0000
  62 H           -4.5265    -2.0012    -9.1191 H            1    LIG   0.0000
  63 H           -5.5911    -1.5487    -7.9664 H            1    LIG   0.0000
  64 H           -4.4906    -0.4800    -8.5264 H            1    LIG   0.0000
  65 H           -2.5627    -3.5040    -8.1343 H            1    LIG   0.0000
  66 H           -0.7668    -4.5105    -6.5274 H            1    LIG   0.0000
  67 H           -0.1478    -3.3770    -5.5281 H            1    LIG   0.0000
  68 H           -1.2468    -4.4470    -4.9679 H            1    LIG   0.0000
  69 H           -1.5632     0.8111    -2.0952 H            1    LIG   0.0000
  70 H           -4.6375     0.3381     0.9249 H            1    LIG   0.0000
  71 H           -6.1283    -0.6945     2.4728 H            1    LIG   0.0000
@<TRIPOS>BOND
   1        1        2 1
   2        2        3 1
   3        3        4 ar
   4        4        5 ar
   5        5        6 ar
   6        6        7 1
   7        7        8 1
   8        8        9 1
   9        8       10 1
  10       10       11 2
  11       11       12 1
  12       12       13 2
  13       13       14 1
  14       14       15 1
  15       15       16 1
  16       15       17 1
  17       15       18 1
  18       13       19 1
  19       19       10 1
  20       19       20 1
  21       20       21 1
  22       21       22 ar
  23       22       23 ar
  24       23       24 ar
  25       24       25 1
  26       25       26 1
  27       26       27 2
  28       27       28 1
  29       27       29 1
  30       29       30 2
  31       30       25 1
  32       30       31 1
  33       24       32 ar
  34       32       33 ar
  35       33       21 ar
  36        6       34 ar
  37       34       35 ar
  38       35        3 ar
  39       35       36 1
  40        1       37 1
  41        1       38 1
  42        1       39 1
  43        4       40 1
  44        5       41 1
  45        7       42 1
  46        7       43 1
  47        9       44 1
  48        9       45 1
  49        9       46 1
  50       14       47 1
  51       14       48 1
  52       16       49 1
  53       16       50 1
  54       16       51 1
  55       17       52 1
  56       17       53 1
  57       17       54 1
  58       18       55 1
  59       18       56 1
  60       18       57 1
  61       20       58 1
  62       20       59 1
  63       22       60 1
  64       23       61 1
  65       28       62 1
  66       28       63 1
  67       28       64 1
  68       29       65 1
  69       31       66 1
  70       31       67 1
  71       31       68 1
  72       33       69 1
  73       34       70 1
  74       36       71 1

@<TRIPOS>MOLECULE

  71   74
SMALL
USER_CHARGES
@<TRIPOS>ATOM
   1 C1          -2.7199     0.1299     6.2437 C.3          1    LIG   0.0000
   2 O2          -3.7059    -0.1316     5.2560 O.3          1    LIG   0.0000
   3 C3          -3.3993     0.2767     4.0063 C.ar         1    LIG   0.0000
   4 C4          -2.1805     0.9054     3.7737 C.ar         1    LIG   0.0000
   5 C5          -1.8696     1.3250     2.4841 C.ar         1    LIG   0.0000
   6 C6          -2.7727     1.1135     1.4469 C.ar         1    LIG   0.0000
   7 C7          -2.4350     1.5722     0.0375 C.3          1    LIG   0.0000
   8 N8          -1.1074     2.2034     0.0325 N.pl3        1    LIG   0.0000
   9 C9          -0.9901     3.6686     0.0483 C.3          1    LIG   0.0000
  10 C10          0.0426     1.4109     0.0126 C.2          1    LIG   0.0000
  11 N11          1.2808     1.8391     0.0060 N.2          1    LIG   0.0000
  12 N12          2.0968     0.8006    -0.0246 N.2          1    LIG   0.0000
  13 C13          1.4004    -0.3102    -0.0301 C.2          1    LIG   0.0000
  14 C14          1.9531    -1.7256    -0.0595 C.3          1    LIG   0.0000
  15 C15          3.4721    -1.6760    -0.0823 C.3          1    LIG   0.0000
  16 C16          4.0249    -3.0917    -0.1117 C.3          1    LIG   0.0000
  17 C17          3.9360    -0.9252    -1.3198 C.3          1    LIG   0.0000
  18 C18          3.9745    -0.9617     1.1618 C.3          1    LIG   0.0000
  19 N19          0.0889     0.0505    -0.0083 N.pl3        1    LIG   0.0000
  20 C20         -1.0627    -0.8618    -0.0041 C.3          1    LIG   0.0000
  21 C21         -1.4821    -1.1553    -1.4362 C.ar         1    LIG   0.0000
  22 C22         -0.7866    -0.5741    -2.4918 C.ar         1    LIG   0.0000
  23 C23         -1.1648    -0.8392    -3.8038 C.ar         1    LIG   0.0000
  24 C24         -2.2429    -1.6864    -4.0388 C.ar         1    LIG   0.0000
  25 N25         -2.6137    -1.9426    -5.3654 N.pl3        1    LIG   0.0000
  26 N26         -2.0257    -1.4477    -6.4279 N.2          1    LIG   0.0000
  27 C27         -2.6182    -1.8862    -7.5134 C.2          1    LIG   0.0000
  28 C28         -2.2316    -1.5395    -8.9413 C.3          1    LIG   0.0000
  29 C29         -3.6739    -2.7346    -7.1220 C.2          1    LIG   0.0000
  30 C30         -3.6392    -2.7448    -5.7636 C.2          1    LIG   0.0000
  31 C31         -4.5804    -3.5182    -4.8545 C.3          1    LIG   0.0000
  32 N32         -2.9018    -2.2365    -3.0076 N.ar         1    LIG   0.0000
  33 C33         -2.5511    -1.9940    -1.7358 C.ar         1    LIG   0.0000
  34 C34         -3.9927     0.4861     1.6748 C.ar         1    LIG   0.0000
  35 C35         -4.2990     0.0686     2.9655 C.ar         1    LIG   0.0000
  36 O36         -5.4766    -0.5414     3.2158 O.3          1    LIG   0.0000
  37 H           -3.0379    -0.2075     7.1297 H            1    LIG   0.0000
  38 H           -1.8691    -0.3337     5.9963 H            1    LIG   0.0000
  39 H           -2.5582     1.1151     6.3007 H            1    LIG   0.0000
  40 H           -1.5359     1.0538     4.5238 H            1    LIG   0.0000
  41 H           -0.9971     1.7786     2.3026 H            1    LIG   0.0000
  42 H           -2.4316     0.7838    -0.5778 H            1    LIG   0.0000
  43 H           -3.1194     2.2328    -0.2710 H            1    LIG   0.0000
  44 H           -1.9033     4.0759     0.0615 H            1    LIG   0.0000
  45 H           -0.4861     3.9538     0.8635 H            1    LIG   0.0000
  46 H           -0.5013     3.9727    -0.7693 H            1    LIG   0.0000
  47 H            1.6226    -2.1956    -0.8779 H            1    LIG   0.0000
  48 H            1.6479    -2.2196     0.7547 H            1    LIG   0.0000
  49 H            5.0243    -3.0590    -0.1267 H            1    LIG   0.0000
  50 H            3.7197    -3.5856     0.7025 H            1    LIG   0.0000
  51 H            3.6944    -3.5616    -0.9301 H            1    LIG   0.0000
  52 H            4.9354    -0.8926    -1.3348 H            1    LIG   0.0000
  53 H            3.6055    -1.3952    -2.1383 H            1    LIG   0.0000
  54 H            3.5724     0.0061    -1.3005 H            1    LIG   0.0000
  55 H            4.9738    -0.9290     1.1468 H            1    LIG   0.0000
  56 H            3.6108    -0.0303     1.1811 H            1    LIG   0.0000
  57 H            3.6693    -1.4556     1.9759 H            1    LIG   0.0000
  58 H           -1.8235    -0.4359     0.4855 H            1    LIG   0.0000
  59 H           -0.8098    -1.7156     0.4508 H            1    LIG   0.0000
  60 H           -0.0147     0.0343    -2.3072 H            1    LIG   0.0000
  61 H           -0.6686    -0.4265    -4.5676 H            1    LIG   0.0000
  62 H           -2.8460    -2.0080    -9.5761 H            1    LIG   0.0000
  63 H           -2.3039    -0.5512    -9.0757 H            1    LIG   0.0000
  64 H           -1.2904    -1.8311    -9.1120 H            1    LIG   0.0000
  65 H           -4.3117    -3.2242    -7.7166 H            1    LIG   0.0000
  66 H           -5.2393    -4.0249    -5.4104 H            1    LIG   0.0000
  67 H           -4.0531    -4.1586    -4.2961 H            1    LIG   0.0000
  68 H           -5.0679    -2.8798    -4.2588 H            1    LIG   0.0000
  69 H           -3.0652    -2.4221    -0.9925 H            1    LIG   0.0000
  70 H           -4.6375     0.3381     0.9249 H            1    LIG   0.0000
  71 H           -6.1283    -0.6945     2.4728 H            1    LIG   0.0000
@<TRIPOS>BOND
   1        1        2 1
   2        2        3 1
   3        3        4 ar
   4        4        5 ar
   5        5        6 ar
   6        6        7 1
   7        7        8 1
   8        8        9 1
   9        8       10 1
  10       10       11 2
  11       11       12 1
  12       12       13 2
  13       13       14 1
  14       14       15 1
  15       15       16 1
  16       15       17 1
  17       15       18 1
  18       13       19 1
  19       19       10 1
  20       19       20 1
  21       20       21 1
  22       21       22 ar
  23       22       23 ar
  24       23       24 ar
  25       24       25 1
  26       25       26 1
  27       26       27 2
  28       27       28 1
  29       27       29 1
  30       29       30 2
  31       30       25 1
  32       30       31 1
  33       24       32 ar
  34       32       33 ar
  35       33       21 ar
  36        6       34 ar
  37       34       35 ar
  38       35        3 ar
  39       35       36 1
  40        1       37 1
  41        1       38 1
  42        1       39 1
  43        4       40 1
  44        5       41 1
  45        7       42 1
  46        7       43 1
  47        9       44 1
  48        9       45 1
  49        9       46 1
  50       14       47 1
  51       14       48 1
  52       16       49 1
  53       16       50 1
  54       16       51 1
  55       17       52 1
  56       17       53 1
  57       17       54 1
  58       18       55 1
  59       18       56 1
  60       18       57 1
  61       20       58 1
  62       20       59 1
  63       22       60 1
  64       23       61 1
  65       28       62 1
  66       28       63 1
  67       28       64 1
  68       29       65 1
  69       31       66 1
  70       31       67 1
  71       31       68 1
  72       33       69 1
  73       34       70 1
  74       36       71 1

@<TRIPOS>MOLECULE

  71   74
SMALL
USER_CHARGES
@<TRIPOS>ATOM
   1 C1          -2.7199     0.1299     6.2437 C.3          1    LIG   0.0000
   2 O2          -3.7059    -0.1316     5.2560 O.3          1    LIG   0.0000
   3 C3          -3.3993     0.2767     4.0063 C.ar         1    LIG   0.0000
   4 C4          -2.1805     0.9054     3.7737 C.ar         1    LIG   0.0000
   5 C5          -1.8696     1.3250     2.4841 C.ar         1    LIG   0.0000
   6 C6          -2.7727     1.1135     1.4469 C.ar         1    LIG   0.0000
   7 C7          -2.4350     1.5722     0.0375 C.3          1    LIG   0.0000
   8 N8          -1.1074     2.2034     0.0325 N.pl3        1    LIG   0.0000
   9 C9          -0.9901     3.6686     0.0483 C.3          1    LIG   0.0000
  10 C10          0.0426     1.4109     0.0126 C.2          1    LIG   0.0000
  11 N11          1.2808     1.8391     0.0060 N.2          1    LIG   0.0000
  12 N12          2.0968     0.8006    -0.0246 N.2          1    LIG   0.0000
  13 C13          1.4004    -0.3102    -0.0301 C.2          1    LIG   0.0000
  14 C14          1.9531    -1.7256    -0.0595 C.3          1    LIG   0.0000
  15 C15          3.3992    -1.7147     0.4085 C.3          1    LIG   0.0000
  16 C16          3.7987    -3.1125     0.8523 C.3          1    LIG   0.0000
  17 C17          4.2980    -1.2695    -0.7336 C.3          1    LIG   0.0000
  18 C18          3.5471    -0.7512     1.5748 C.3          1    LIG   0.0000
  19 N19          0.0889     0.0505    -0.0083 N.pl3        1    LIG   0.0000
  20 C20         -1.0627    -0.8618    -0.0041 C.3          1    LIG   0.0000
  21 C21         -1.4821    -1.1553    -1.4362 C.ar         1    LIG   0.0000
  22 C22         -0.7866    -0.5741    -2.4918 C.ar         1    LIG   0.0000
  23 C23         -1.1648    -0.8392    -3.8038 C.ar         1    LIG   0.0000
  24 C24         -2.2429    -1.6864    -4.0388 C.ar         1    LIG   0.0000
  25 N25         -2.6137    -1.9426    -5.3654 N.pl3        1    LIG   0.0000
  26 N26         -2.9041    -3.1223    -5.8590 N.2          1    LIG   0.0000
  27 C27         -3.2097    -3.0135    -7.1304 C.2          1    LIG   0.0000
  28 C28         -3.6024    -4.1550    -8.0531 C.3          1    LIG   0.0000
  29 C29         -3.1108    -1.6534    -7.4882 C.2          1    LIG   0.0000
  30 C30         -2.7334    -1.0116    -6.3515 C.2          1    LIG   0.0000
  31 C31         -2.4907     0.4824    -6.2111 C.3          1    LIG   0.0000
  32 N32         -2.9018    -2.2365    -3.0076 N.ar         1    LIG   0.0000
  33 C33         -2.5511    -1.9940    -1.7358 C.ar         1    LIG   0.0000
  34 C34         -3.9927     0.4861     1.6748 C.ar         1    LIG   0.0000
  35 C35         -4.2990     0.0686     2.9655 C.ar         1    LIG   0.0000
  36 O36         -5.4766    -0.5414     3.2158 O.3          1    LIG   0.0000
  37 H           -3.0379    -0.2075     7.1297 H            1    LIG   0.0000
  38 H           -1.8691    -0.3337     5.9963 H            1    LIG   0.0000
  39 H           -2.5582     1.1151     6.3007 H            1    LIG   0.0000
  40 H           -1.5359     1.0538     4.5238 H            1    LIG   0.0000
  41 H           -0.9971     1.7786     2.3026 H            1    LIG   0.0000
  42 H           -2.4316     0.7838    -0.5778 H            1    LIG   0.0000
  43 H           -3.1194     2.2328    -0.2710 H            1    LIG   0.0000
  44 H           -1.9033     4.0759     0.0615 H            1    LIG   0.0000
  45 H           -0.4861     3.9538     0.8635 H            1    LIG   0.0000
  46 H           -0.5013     3.9727    -0.7693 H            1    LIG   0.0000
  47 H            1.9075    -2.0820    -0.9927 H            1    LIG   0.0000
  48 H            1.4110    -2.3078     0.5465 H            1    LIG   0.0000
  49 H            4.7501    -3.1053     1.1602 H            1    LIG   0.0000
  50 H            3.2074    -3.4054     1.6037 H            1    LIG   0.0000
  51 H            3.7015    -3.7464     0.0850 H            1    LIG   0.0000
  52 H            5.2494    -1.2623    -0.4257 H            1    LIG   0.0000
  53 H            4.2008    -1.9034    -1.5008 H            1    LIG   0.0000
  54 H            4.0352    -0.3499    -1.0255 H            1    LIG   0.0000
  55 H            4.4985    -0.7440     1.8827 H            1    LIG   0.0000
  56 H            3.2842     0.1684     1.2828 H            1    LIG   0.0000
  57 H            2.9558    -1.0441     2.3262 H            1    LIG   0.0000
  58 H           -1.8235    -0.4359     0.4855 H            1    LIG   0.0000
  59 H           -0.8098    -1.7156     0.4508 H            1    LIG   0.0000
  60 H           -0.0147     0.0343    -2.3072 H            1    LIG   0.0000
  61 H           -0.6686    -0.4265    -4.5676 H            1    LIG   0.0000
  62 H           -3.7833    -3.7962    -8.9688 H            1    LIG   0.0000
  63 H           -2.8566    -4.8198    -8.0969 H            1    LIG   0.0000
  64 H           -4.4256    -4.6002    -7.7009 H            1    LIG   0.0000
  65 H           -3.2818    -1.2479    -8.3861 H            1    LIG   0.0000
  66 H           -2.6506     0.9302    -7.0908 H            1    LIG   0.0000
  67 H           -3.1156     0.8588    -5.5271 H            1    LIG   0.0000
  68 H           -1.5464     0.6411    -5.9231 H            1    LIG   0.0000
  69 H           -3.0652    -2.4221    -0.9925 H            1    LIG   0.0000
  70 H           -4.6375     0.3381     0.9249 H            1    LIG   0.0000
  71 H           -6.1283    -0.6945     2.4728 H            1    LIG   0.0000
@<TRIPOS>BOND
   1        1        2 1
   2        2        3 1
   3        3        4 ar
   4        4        5 ar
   5        5        6 ar
   6        6        7 1
   7        7        8 1
   8        8        9 1
   9        8       10 1
  10       10       11 2
  11       11       12 1
  12       12       13 2
  13       13       14 1
  14       14       15 1
  15       15       16 1
  16       15       17 1
  17       15       18 1
  18       13       19 1
  19       19       10 1
  20       19       20 1
  21       20       21 1
  22       21       22 ar
  23       22       23 ar
  24       23       24 ar
  25       24       25 1
  26       25       26 1
  27       26       27 2
  28       27       28 1
  29       27       29 1
  30       29       30 2
  31       30       25 1
  32       30       31 1
  33       24       32 ar
  34       32       33 ar
  35       33       21 ar
  36        6       34 ar
  37       34       35 ar
  38       35        3 ar
  39       35       36 1
  40        1       37 1
  41        1       38 1
  42        1       39 1
  43        4       40 1
  44        5       41 1
  45        7       42 1
  46        7       43 1
  47        9       44 1
  48        9       45 1
  49        9       46 1
  50       14       47 1
  51       14       48 1
  52       16       49 1
  53       16       50 1
  54       16       51 1
  55       17       52 1
  56       17       53 1
  57       17       54 1
  58       18       55 1
  59       18       56 1
  60       18       57 1
  61       20       58 1
  62       20       59 1
  63       22       60 1
  64       23       61 1
  65       28       62 1
  66       28       63 1
  67       28       64 1
  68       29       65 1
  69       31       66 1
  70       31       67 1
  71       31       68 1
  72       33       69 1
  73       34       70 1
  74       36       71 1

@<TRIPOS>MOLECULE

  71   74
SMALL
USER_CHARGES
@<TRIPOS>ATOM
   1 C1          -2.7199     0.1299     6.2437 C.3          1    LIG   0.0000
   2 O2          -3.7059    -0.1316     5.2560 O.3          1    LIG   0.0000
   3 C3          -3.3993     0.2767     4.0063 C.ar         1    LIG   0.0000
   4 C4          -2.1805     0.9054     3.7737 C.ar         1    LIG   0.0000
   5 C5          -1.8696     1.3250     2.4841 C.ar         1    LIG   0.0000
   6 C6          -2.7727     1.1135     1.4469 C.ar         1    LIG   0.0000
   7 C7          -2.4350     1.5722     0.0375 C.3          1    LIG   0.0000
   8 N8          -1.1074     2.2034     0.0325 N.pl3        1    LIG   0.0000
   9 C9          -0.9901     3.6686     0.0483 C.3          1    LIG   0.0000
  10 C10          0.0426     1.4109     0.0126 C.2          1    LIG   0.0000
  11 N11          1.2808     1.8391     0.0060 N.2          1    LIG   0.0000
  12 N12          2.0968     0.8006    -0.0246 N.2          1    LIG   0.0000
  13 C13          1.4004    -0.3102    -0.0301 C.2          1    LIG   0.0000
  14 C14          1.9531    -1.7256    -0.0595 C.3          1    LIG   0.0000
  15 C15          3.4721    -1.6760    -0.0823 C.3          1    LIG   0.0000
  16 C16          4.0249    -3.0917    -0.1117 C.3          1    LIG   0.0000
  17 C17          3.9360    -0.9252    -1.3198 C.3          1    LIG   0.0000
  18 C18          3.9745    -0.9617     1.1618 C.3          1    LIG   0.0000
  19 N19          0.0889     0.0505    -0.0083 N.pl3        1    LIG   0.0000
  20 C20         -1.0627    -0.8618    -0.0041 C.3          1    LIG   0.0000
  21 C21         -1.4821    -1.1553    -1.4362 C.ar         1    LIG   0.0000
  22 C22         -0.7866    -0.5741    -2.4918 C.ar         1    LIG   0.0000
  23 C23         -1.1648    -0.8392    -3.8038 C.ar         1    LIG   0.0000
  24 C24         -2.2429    -1.6864    -4.0388 C.ar         1    LIG   0.0000
  25 N25         -2.6137    -1.9426    -5.3654 N.pl3        1    LIG   0.0000
  26 N26         -3.8297    -2.2115    -5.7762 N.2          1    LIG   0.0000
  27 C27         -3.8328    -2.4002    -7.0747 C.2          1    LIG   0.0000
  28 C28         -5.0482    -2.7333    -7.9235 C.3          1    LIG   0.0000
  29 C29         -2.5127    -2.2388    -7.5423 C.2          1    LIG   0.0000
  30 C30         -1.7749    -1.9520    -6.4377 C.2          1    LIG   0.0000
  31 C31         -0.2783    -1.6877    -6.4104 C.3          1    LIG   0.0000
  32 N32         -2.9018    -2.2365    -3.0076 N.ar         1    LIG   0.0000
  33 C33         -2.5511    -1.9940    -1.7358 C.ar         1    LIG   0.0000
  34 C34         -3.9927     0.4861     1.6748 C.ar         1    LIG   0.0000
  35 C35         -4.2990     0.0686     2.9655 C.ar         1    LIG   0.0000
  36 O36         -5.4766    -0.5414     3.2158 O.3          1    LIG   0.0000
  37 H           -3.0379    -0.2075     7.1297 H            1    LIG   0.0000
  38 H           -1.8691    -0.3337     5.9963 H            1    LIG   0.0000
  39 H           -2.5582     1.1151     6.3007 H            1    LIG   0.0000
  40 H           -1.5359     1.0538     4.5238 H            1    LIG   0.0000
  41 H           -0.9971     1.7786     2.3026 H            1    LIG   0.0000
  42 H           -2.4316     0.7838    -0.5778 H            1    LIG   0.0000
  43 H           -3.1194     2.2328    -0.2710 H            1    LIG   0.0000
  44 H           -1.9033     4.0759     0.0615 H            1    LIG   0.0000
  45 H           -0.4861     3.9538     0.8635 H            1    LIG   0.0000
  46 H           -0.5013     3.9727    -0.7693 H            1    LIG   0.0000
  47 H            1.6226    -2.1956    -0.8779 H            1    LIG   0.0000
  48 H            1.6479    -2.2196     0.7547 H            1    LIG   0.0000
  49 H            5.0243    -3.0590    -0.1267 H            1    LIG   0.0000
  50 H            3.7197    -3.5856     0.7025 H            1    LIG   0.0000
  51 H            3.6944    -3.5616    -0.9301 H            1    LIG   0.0000
  52 H            4.9354    -0.8926    -1.3348 H            1    LIG   0.0000
  53 H            3.6055    -1.3952    -2.1383 H            1    LIG   0.0000
  54 H            3.5724     0.0061    -1.3005 H            1    LIG   0.0000
  55 H            4.9738    -0.9290     1.1468 H            1    LIG   0.0000
  56 H            3.6108    -0.0303     1.1811 H            1    LIG   0.0000
  57 H            3.6693    -1.4556     1.9759 H            1    LIG   0.0000
  58 H           -1.8235    -0.4359     0.4855 H            1    LIG   0.0000
  59 H           -0.8098    -1.7156     0.4508 H            1    LIG   0.0000
  60 H           -0.0147     0.0343    -2.3072 H            1    LIG   0.0000
  61 H           -0.6686    -0.4265    -4.5676 H            1    LIG   0.0000
  62 H           -4.7717    -2.8242    -8.8803 H            1    LIG   0.0000
  63 H           -5.4487    -3.5939    -7.6091 H            1    LIG   0.0000
  64 H           -5.7239    -2.0009    -7.8400 H            1    LIG   0.0000
  65 H           -2.1886    -2.3184    -8.4850 H            1    LIG   0.0000
  66 H            0.0895    -1.7580    -7.3376 H            1    LIG   0.0000
  67 H           -0.1085    -0.7692    -6.0532 H            1    LIG   0.0000
  68 H            0.1686    -2.3619    -5.8225 H            1    LIG   0.0000
  69 H           -3.0652    -2.4221    -0.9925 H            1    LIG   0.0000
  70 H           -4.6375     0.3381     0.9249 H            1    LIG   0.0000
  71 H           -6.1283    -0.6945     2.4728 H            1    LIG   0.0000
@<TRIPOS>BOND
   1        1        2 1
   2        2        3 1
   3        3        4 ar
   4        4        5 ar
   5        5        6 ar
   6        6        7 1
   7        7        8 1
   8        8        9 1
   9        8       10 1
  10       10       11 2
  11       11       12 1
  12       12       13 2
  13       13       14 1
  14       14       15 1
  15       15       16 1
  16       15       17 1
  17       15       18 1
  18       13       19 1
  19       19       10 1
  20       19       20 1
  21       20       21 1
  22       21       22 ar
  23       22       23 ar
  24       23       24 ar
  25       24       25 1
  26       25       26 1
  27       26       27 2
  28       27       28 1
  29       27       29 1
  30       29       30 2
  31       30       25 1
  32       30       31 1
  33       24       32 ar
  34       32       33 ar
  35       33       21 ar
  36        6       34 ar
  37       34       35 ar
  38       35        3 ar
  39       35       36 1
  40        1       37 1
  41        1       38 1
  42        1       39 1
  43        4       40 1
  44        5       41 1
  45        7       42 1
  46        7       43 1
  47        9       44 1
  48        9       45 1
  49        9       46 1
  50       14       47 1
  51       14       48 1
  52       16       49 1
  53       16       50 1
  54       16       51 1
  55       17       52 1
  56       17       53 1
  57       17       54 1
  58       18       55 1
  59       18       56 1
  60       18       57 1
  61       20       58 1
  62       20       59 1
  63       22       60 1
  64       23       61 1
  65       28       62 1
  66       28       63 1
  67       28       64 1
  68       29       65 1
  69       31       66 1
  70       31       67 1
  71       31       68 1
  72       33       69 1
  73       34       70 1
  74       36       71 1

@<TRIPOS>MOLECULE

  71   74
SMALL
USER_CHARGES
@<TRIPOS>ATOM
   1 C1          -2.7199     0.1299     6.2437 C.3          1    LIG   0.0000
   2 O2          -3.7059    -0.1316     5.2560 O.3          1    LIG   0.0000
   3 C3          -3.3993     0.2767     4.0063 C.ar         1    LIG   0.0000
   4 C4          -2.1805     0.9054     3.7737 C.ar         1    LIG   0.0000
   5 C5          -1.8696     1.3250     2.4841 C.ar         1    LIG   0.0000
   6 C6          -2.7727     1.1135     1.4469 C.ar         1    LIG   0.0000
   7 C7          -2.4350     1.5722     0.0375 C.3          1    LIG   0.0000
   8 N8          -1.1074     2.2034     0.0325 N.pl3        1    LIG   0.0000
   9 C9          -0.9901     3.6686     0.0483 C.3          1    LIG   0.0000
  10 C10          0.0426     1.4109     0.0126 C.2          1    LIG   0.0000
  11 N11          1.2808     1.8391     0.0060 N.2          1    LIG   0.0000
  12 N12          2.0968     0.8006    -0.0246 N.2          1    LIG   0.0000
  13 C13          1.4004    -0.3102    -0.0301 C.2          1    LIG   0.0000
  14 C14          1.9531    -1.7256    -0.0595 C.3          1    LIG   0.0000
  15 C15          3.4721    -1.6760    -0.0823 C.3          1    LIG   0.0000
  16 C16          4.0249    -3.0917    -0.1117 C.3          1    LIG   0.0000
  17 C17          3.9360    -0.9252    -1.3198 C.3          1    LIG   0.0000
  18 C18          3.9745    -0.9617     1.1618 C.3          1    LIG   0.0000
  19 N19          0.0889     0.0505    -0.0083 N.pl3        1    LIG   0.0000
  20 C20         -1.0627    -0.8618    -0.0041 C.3          1    LIG   0.0000
  21 C21         -1.4821    -1.1553    -1.4362 C.ar         1    LIG   0.0000
  22 C22         -1.6783    -0.1045    -2.3268 C.ar         1    LIG   0.0000
  23 C23         -2.0612    -0.3665    -3.6381 C.ar         1    LIG   0.0000
  24 C24         -2.2450    -1.6861    -4.0382 C.ar         1    LIG   0.0000
  25 N25         -2.6327    -1.9346    -5.3615 N.pl3        1    LIG   0.0000
  26 N26         -3.3556    -1.1319    -6.1050 N.2          1    LIG   0.0000
  27 C27         -3.5381    -1.6625    -7.2911 C.2          1    LIG   0.0000
  28 C28         -4.3223    -1.0405    -8.4342 C.3          1    LIG   0.0000
  29 C29         -2.8786    -2.9083    -7.3181 C.2          1    LIG   0.0000
  30 C30         -2.3213    -3.0442    -6.0862 C.2          1    LIG   0.0000
  31 C31         -1.4956    -4.2274    -5.6081 C.3          1    LIG   0.0000
  32 N32         -2.0520    -2.6857    -3.1644 N.ar         1    LIG   0.0000
  33 C33         -1.6813    -2.4531    -1.8965 C.ar         1    LIG   0.0000
  34 C34         -3.9927     0.4861     1.6748 C.ar         1    LIG   0.0000
  35 C35         -4.2990     0.0686     2.9655 C.ar         1    LIG   0.0000
  36 O36         -5.4766    -0.5414     3.2158 O.3          1    LIG   0.0000
  37 H           -3.0379    -0.2075     7.1297 H            1    LIG   0.0000
  38 H           -1.8691    -0.3337     5.9963 H            1    LIG   0.0000
  39 H           -2.5582     1.1151     6.3007 H            1    LIG   0.0000
  40 H           -1.5359     1.0538     4.5238 H            1    LIG   0.0000
  41 H           -0.9971     1.7786     2.3026 H            1    LIG   0.0000
  42 H           -2.4316     0.7838    -0.5778 H            1    LIG   0.0000
  43 H           -3.1194     2.2328    -0.2710 H            1    LIG   0.0000
  44 H           -1.9033     4.0759     0.0615 H            1    LIG   0.0000
  45 H           -0.4861     3.9538     0.8635 H            1    LIG   0.0000
  46 H           -0.5013     3.9727    -0.7693 H            1    LIG   0.0000
  47 H            1.6226    -2.1956    -0.8779 H            1    LIG   0.0000
  48 H            1.6479    -2.2196     0.7547 H            1    LIG   0.0000
  49 H            5.0243    -3.0590    -0.1267 H            1    LIG   0.0000
  50 H            3.7197    -3.5856     0.7025 H            1    LIG   0.0000
  51 H            3.6944    -3.5616    -0.9301 H            1    LIG   0.0000
  52 H            4.9354    -0.8926    -1.3348 H            1    LIG   0.0000
  53 H            3.6055    -1.3952    -2.1383 H            1    LIG   0.0000
  54 H            3.5724     0.0061    -1.3005 H            1    LIG   0.0000
  55 H            4.9738    -0.9290     1.1468 H            1    LIG   0.0000
  56 H            3.6108    -0.0303     1.1811 H            1    LIG   0.0000
  57 H            3.6693    -1.4556     1.9759 H            1    LIG   0.0000
  58 H           -1.8235    -0.4359     0.4855 H            1    LIG   0.0000
  59 H           -0.8098    -1.7156     0.4508 H            1    LIG   0.0000
  60 H           -1.5441     0.8391    -2.0242 H            1    LIG   0.0000
  61 H           -2.2025     0.3835    -4.2844 H            1    LIG   0.0000
  62 H           -4.3039    -1.6540    -9.2237 H            1    LIG   0.0000
  63 H           -5.2692    -0.8939    -8.1479 H            1    LIG   0.0000
  64 H           -3.9099    -0.1642    -8.6834 H            1    LIG   0.0000
  65 H           -2.8312    -3.5537    -8.0805 H            1    LIG   0.0000
  66 H           -1.4225    -4.9016    -6.3430 H            1    LIG   0.0000
  67 H           -0.5814    -3.9139    -5.3513 H            1    LIG   0.0000
  68 H           -1.9396    -4.6452    -4.8154 H            1    LIG   0.0000
  69 H           -1.5463    -3.2234    -1.2732 H            1    LIG   0.0000
  70 H           -4.6375     0.3381     0.9249 H            1    LIG   0.0000
  71 H           -6.1283    -0.6945     2.4728 H            1    LIG   0.0000
@<TRIPOS>BOND
   1        1        2 1
   2        2        3 1
   3        3        4 ar
   4        4        5 ar
   5        5        6 ar
   6        6        7 1
   7        7        8 1
   8        8        9 1
   9        8       10 1
  10       10       11 2
  11       11       12 1
  12       12       13 2
  13       13       14 1
  14       14       15 1
  15       15       16 1
  16       15       17 1
  17       15       18 1
  18       13       19 1
  19       19       10 1
  20       19       20 1
  21       20       21 1
  22       21       22 ar
  23       22       23 ar
  24       23       24 ar
  25       24       25 1
  26       25       26 1
  27       26       27 2
  28       27       28 1
  29       27       29 1
  30       29       30 2
  31       30       25 1
  32       30       31 1
  33       24       32 ar
  34       32       33 ar
  35       33       21 ar
  36        6       34 ar
  37       34       35 ar
  38       35        3 ar
  39       35       36 1
  40        1       37 1
  41        1       38 1
  42        1       39 1
  43        4       40 1
  44        5       41 1
  45        7       42 1
  46        7       43 1
  47        9       44 1
  48        9       45 1
  49        9       46 1
  50       14       47 1
  51       14       48 1
  52       16       49 1
  53       16       50 1
  54       16       51 1
  55       17       52 1
  56       17       53 1
  57       17       54 1
  58       18       55 1
  59       18       56 1
  60       18       57 1
  61       20       58 1
  62       20       59 1
  63       22       60 1
  64       23       61 1
  65       28       62 1
  66       28       63 1
  67       28       64 1
  68       29       65 1
  69       31       66 1
  70       31       67 1
  71       31       68 1
  72       33       69 1
  73       34       70 1
  74       36       71 1

@<TRIPOS>MOLECULE

  71   74
SMALL
USER_CHARGES
@<TRIPOS>ATOM
   1 C1          -2.7199     0.1299     6.2437 C.3          1    LIG   0.0000
   2 O2          -3.7059    -0.1316     5.2560 O.3          1    LIG   0.0000
   3 C3          -3.3993     0.2767     4.0063 C.ar         1    LIG   0.0000
   4 C4          -2.1805     0.9054     3.7737 C.ar         1    LIG   0.0000
   5 C5          -1.8696     1.3250     2.4841 C.ar         1    LIG   0.0000
   6 C6          -2.7727     1.1135     1.4469 C.ar         1    LIG   0.0000
   7 C7          -2.4350     1.5722     0.0375 C.3          1    LIG   0.0000
   8 N8          -1.1074     2.2034     0.0325 N.pl3        1    LIG   0.0000
   9 C9          -0.9901     3.6686     0.0483 C.3          1    LIG   0.0000
  10 C10          0.0426     1.4109     0.0126 C.2          1    LIG   0.0000
  11 N11          1.2808     1.8391     0.0060 N.2          1    LIG   0.0000
  12 N12          2.0968     0.8006    -0.0246 N.2          1    LIG   0.0000
  13 C13          1.4004    -0.3102    -0.0301 C.2          1    LIG   0.0000
  14 C14          1.9531    -1.7256    -0.0595 C.3          1    LIG   0.0000
  15 C15          3.3840    -1.7003    -0.5715 C.3          1    LIG   0.0000
  16 C16          3.9368    -3.1159    -0.6009 C.3          1    LIG   0.0000
  17 C17          3.4097    -1.1171    -1.9750 C.3          1    LIG   0.0000
  18 C18          4.2365    -0.8425     0.3492 C.3          1    LIG   0.0000
  19 N19          0.0889     0.0505    -0.0083 N.pl3        1    LIG   0.0000
  20 C20         -1.0627    -0.8618    -0.0041 C.3          1    LIG   0.0000
  21 C21         -1.4821    -1.1553    -1.4362 C.ar         1    LIG   0.0000
  22 C22         -1.6783    -0.1045    -2.3268 C.ar         1    LIG   0.0000
  23 C23         -2.0612    -0.3665    -3.6381 C.ar         1    LIG   0.0000
  24 C24         -2.2450    -1.6861    -4.0382 C.ar         1    LIG   0.0000
  25 N25         -2.6327    -1.9346    -5.3615 N.pl3        1    LIG   0.0000
  26 N26         -1.9541    -2.6426    -6.2320 N.2          1    LIG   0.0000
  27 C27         -2.5946    -2.6797    -7.3766 C.2          1    LIG   0.0000
  28 C28         -2.1330    -3.3987    -8.6329 C.3          1    LIG   0.0000
  29 C29         -3.7846    -1.9371    -7.2350 C.2          1    LIG   0.0000
  30 C30         -3.7728    -1.4841    -5.9539 C.2          1    LIG   0.0000
  31 C31         -4.8461    -0.6275    -5.3023 C.3          1    LIG   0.0000
  32 N32         -2.0520    -2.6857    -3.1644 N.ar         1    LIG   0.0000
  33 C33         -1.6813    -2.4531    -1.8965 C.ar         1    LIG   0.0000
  34 C34         -3.9927     0.4861     1.6748 C.ar         1    LIG   0.0000
  35 C35         -4.2990     0.0686     2.9655 C.ar         1    LIG   0.0000
  36 O36         -5.4766    -0.5414     3.2158 O.3          1    LIG   0.0000
  37 H           -3.0379    -0.2075     7.1297 H            1    LIG   0.0000
  38 H           -1.8691    -0.3337     5.9963 H            1    LIG   0.0000
  39 H           -2.5582     1.1151     6.3007 H            1    LIG   0.0000
  40 H           -1.5359     1.0538     4.5238 H            1    LIG   0.0000
  41 H           -0.9971     1.7786     2.3026 H            1    LIG   0.0000
  42 H           -2.4316     0.7838    -0.5778 H            1    LIG   0.0000
  43 H           -3.1194     2.2328    -0.2710 H            1    LIG   0.0000
  44 H           -1.9033     4.0759     0.0615 H            1    LIG   0.0000
  45 H           -0.4861     3.9538     0.8635 H            1    LIG   0.0000
  46 H           -0.5013     3.9727    -0.7693 H            1    LIG   0.0000
  47 H            1.3922    -2.2900    -0.6652 H            1    LIG   0.0000
  48 H            1.9362    -2.1093     0.8639 H            1    LIG   0.0000
  49 H            4.8782    -3.0992    -0.9378 H            1    LIG   0.0000
  50 H            3.9199    -3.4996     0.3224 H            1    LIG   0.0000
  51 H            3.3759    -3.6803    -1.2067 H            1    LIG   0.0000
  52 H            4.3511    -1.1005    -2.3119 H            1    LIG   0.0000
  53 H            2.8488    -1.6815    -2.5807 H            1    LIG   0.0000
  54 H            3.0460    -0.1858    -1.9557 H            1    LIG   0.0000
  55 H            5.1779    -0.8258     0.0123 H            1    LIG   0.0000
  56 H            3.8729     0.0888     0.3686 H            1    LIG   0.0000
  57 H            4.2197    -1.2261     1.2726 H            1    LIG   0.0000
  58 H           -1.8235    -0.4359     0.4855 H            1    LIG   0.0000
  59 H           -0.8098    -1.7156     0.4508 H            1    LIG   0.0000
  60 H           -1.5441     0.8391    -2.0242 H            1    LIG   0.0000
  61 H           -2.2025     0.3835    -4.2844 H            1    LIG   0.0000
  62 H           -2.8072    -3.2663    -9.3595 H            1    LIG   0.0000
  63 H           -1.2514    -3.0276    -8.9245 H            1    LIG   0.0000
  64 H           -2.0366    -4.3755    -8.4416 H            1    LIG   0.0000
  65 H           -4.4870    -1.7778    -7.9287 H            1    LIG   0.0000
  66 H           -5.5723    -0.4423    -5.9644 H            1    LIG   0.0000
  67 H           -5.2280    -1.1128    -4.5157 H            1    LIG   0.0000
  68 H           -4.4443     0.2362    -4.9980 H            1    LIG   0.0000
  69 H           -1.5463    -3.2234    -1.2732 H            1    LIG   0.0000
  70 H           -4.6375     0.3381     0.9249 H            1    LIG   0.0000
  71 H           -6.1283    -0.6945     2.4728 H            1    LIG   0.0000
@<TRIPOS>BOND
   1        1        2 1
   2        2        3 1
   3        3        4 ar
   4        4        5 ar
   5        5        6 ar
   6        6        7 1
   7        7        8 1
   8        8        9 1
   9        8       10 1
  10       10       11 2
  11       11       12 1
  12       12       13 2
  13       13       14 1
  14       14       15 1
  15       15       16 1
  16       15       17 1
  17       15       18 1
  18       13       19 1
  19       19       10 1
  20       19       20 1
  21       20       21 1
  22       21       22 ar
  23       22       23 ar
  24       23       24 ar
  25       24       25 1
  26       25       26 1
  27       26       27 2
  28       27       28 1
  29       27       29 1
  30       29       30 2
  31       30       25 1
  32       30       31 1
  33       24       32 ar
  34       32       33 ar
  35       33       21 ar
  36        6       34 ar
  37       34       35 ar
  38       35        3 ar
  39       35       36 1
  40        1       37 1
  41        1       38 1
  42        1       39 1
  43        4       40 1
  44        5       41 1
  45        7       42 1
  46        7       43 1
  47        9       44 1
  48        9       45 1
  49        9       46 1
  50       14       47 1
  51       14       48 1
  52       16       49 1
  53       16       50 1
  54       16       51 1
  55       17       52 1
  56       17       53 1
  57       17       54 1
  58       18       55 1
  59       18       56 1
  60       18       57 1
  61       20       58 1
  62       20       59 1
  63       22       60 1
  64       23       61 1
  65       28       62 1
  66       28       63 1
  67       28       64 1
  68       29       65 1
  69       31       66 1
  70       31       67 1
  71       31       68 1
  72       33       69 1
  73       34       70 1
  74       36       71 1

@<TRIPOS>MOLECULE

  71   74
SMALL
USER_CHARGES
@<TRIPOS>ATOM
   1 C1          -2.7199     0.1299     6.2437 C.3          1    LIG   0.0000
   2 O2          -3.7059    -0.1316     5.2560 O.3          1    LIG   0.0000
   3 C3          -3.3993     0.2767     4.0063 C.ar         1    LIG   0.0000
   4 C4          -2.1805     0.9054     3.7737 C.ar         1    LIG   0.0000
   5 C5          -1.8696     1.3250     2.4841 C.ar         1    LIG   0.0000
   6 C6          -2.7727     1.1135     1.4469 C.ar         1    LIG   0.0000
   7 C7          -2.4350     1.5722     0.0375 C.3          1    LIG   0.0000
   8 N8          -1.1074     2.2034     0.0325 N.pl3        1    LIG   0.0000
   9 C9          -0.9901     3.6686     0.0483 C.3          1    LIG   0.0000
  10 C10          0.0426     1.4109     0.0126 C.2          1    LIG   0.0000
  11 N11          1.2808     1.8391     0.0060 N.2          1    LIG   0.0000
  12 N12          2.0968     0.8006    -0.0246 N.2          1    LIG   0.0000
  13 C13          1.4004    -0.3102    -0.0301 C.2          1    LIG   0.0000
  14 C14          1.9531    -1.7256    -0.0595 C.3          1    LIG   0.0000
  15 C15          3.3992    -1.7147     0.4085 C.3          1    LIG   0.0000
  16 C16          3.9520    -3.1303     0.3792 C.3          1    LIG   0.0000
  17 C17          4.2232    -0.8298    -0.5126 C.3          1    LIG   0.0000
  18 C18          3.4686    -1.1730     1.8270 C.3          1    LIG   0.0000
  19 N19          0.0889     0.0505    -0.0083 N.pl3        1    LIG   0.0000
  20 C20         -1.0627    -0.8618    -0.0041 C.3          1    LIG   0.0000
  21 C21         -1.4821    -1.1553    -1.4362 C.ar         1    LIG   0.0000
  22 C22         -2.8171    -1.0230    -1.8050 C.ar         1    LIG   0.0000
  23 C23         -3.2070    -1.2892    -3.1134 C.ar         1    LIG   0.0000
  24 C24         -2.2467    -1.6889    -4.0372 C.ar         1    LIG   0.0000
  25 N25         -2.6544    -1.9556    -5.3508 N.pl3        1    LIG   0.0000
  26 N26         -3.8938    -2.1331    -5.7406 N.2          1    LIG   0.0000
  27 C27         -3.9292    -2.3631    -7.0319 C.2          1    LIG   0.0000
  28 C28         -5.1789    -2.6187    -7.8574 C.3          1    LIG   0.0000
  29 C29         -2.6060    -2.3300    -7.5175 C.2          1    LIG   0.0000
  30 C30         -1.8329    -2.0713    -6.4303 C.2          1    LIG   0.0000
  31 C31         -0.3190    -1.9348    -6.4263 C.3          1    LIG   0.0000
  32 N32         -0.9644    -1.8119    -3.6621 N.ar         1    LIG   0.0000
  33 C33         -0.5691    -1.5582    -2.4057 C.ar         1    LIG   0.0000
  34 C34         -3.9927     0.4861     1.6748 C.ar         1    LIG   0.0000
  35 C35         -4.2990     0.0686     2.9655 C.ar         1    LIG   0.0000
  36 O36         -5.4766    -0.5414     3.2158 O.3          1    LIG   0.0000
  37 H           -3.0379    -0.2075     7.1297 H            1    LIG   0.0000
  38 H           -1.8691    -0.3337     5.9963 H            1    LIG   0.0000
  39 H           -2.5582     1.1151     6.3007 H            1    LIG   0.0000
  40 H           -1.5359     1.0538     4.5238 H            1    LIG   0.0000
  41 H           -0.9971     1.7786     2.3026 H            1    LIG   0.0000
  42 H           -2.4316     0.7838    -0.5778 H            1    LIG   0.0000
  43 H           -3.1194     2.2328    -0.2710 H            1    LIG   0.0000
  44 H           -1.9033     4.0759     0.0615 H            1    LIG   0.0000
  45 H           -0.4861     3.9538     0.8635 H            1    LIG   0.0000
  46 H           -0.5013     3.9727    -0.7693 H            1    LIG   0.0000
  47 H            1.9075    -2.0820    -0.9927 H            1    LIG   0.0000
  48 H            1.4110    -2.3078     0.5465 H            1    LIG   0.0000
  49 H            4.9034    -3.1231     0.6870 H            1    LIG   0.0000
  50 H            3.4099    -3.7125     0.9852 H            1    LIG   0.0000
  51 H            3.9063    -3.4867    -0.5541 H            1    LIG   0.0000
  52 H            5.1746    -0.8226    -0.2047 H            1    LIG   0.0000
  53 H            4.1775    -1.1862    -1.4458 H            1    LIG   0.0000
  54 H            3.8595     0.1015    -0.4933 H            1    LIG   0.0000
  55 H            4.4200    -1.1658     2.1349 H            1    LIG   0.0000
  56 H            3.1050    -0.2417     1.8464 H            1    LIG   0.0000
  57 H            2.9266    -1.7552     2.4330 H            1    LIG   0.0000
  58 H           -1.8235    -0.4359     0.4855 H            1    LIG   0.0000
  59 H           -0.8098    -1.7156     0.4508 H            1    LIG   0.0000
  60 H           -3.4964    -0.7364    -1.1294 H            1    LIG   0.0000
  61 H           -4.1644    -1.1946    -3.3863 H            1    LIG   0.0000
  62 H           -4.9231    -2.7640    -8.8132 H            1    LIG   0.0000
  63 H           -5.6471    -3.4314    -7.5104 H            1    LIG   0.0000
  64 H           -5.7890    -1.8291    -7.7919 H            1    LIG   0.0000
  65 H           -2.3016    -2.4676    -8.4600 H            1    LIG   0.0000
  66 H            0.0300    -2.0663    -7.3542 H            1    LIG   0.0000
  67 H           -0.0674    -1.0230    -6.1017 H            1    LIG   0.0000
  68 H            0.0764    -2.6251    -5.8205 H            1    LIG   0.0000
  69 H            0.3955    -1.6602    -2.1623 H            1    LIG   0.0000
  70 H           -4.6375     0.3381     0.9249 H            1    LIG   0.0000
  71 H           -6.1283    -0.6945     2.4728 H            1    LIG   0.0000
@<TRIPOS>BOND
   1        1        2 1
   2        2        3 1
   3        3        4 ar
   4        4        5 ar
   5        5        6 ar
   6        6        7 1
   7        7        8 1
   8        8        9 1
   9        8       10 1
  10       10       11 2
  11       11       12 1
  12       12       13 2
  13       13       14 1
  14       14       15 1
  15       15       16 1
  16       15       17 1
  17       15       18 1
  18       13       19 1
  19       19       10 1
  20       19       20 1
  21       20       21 1
  22       21       22 ar
  23       22       23 ar
  24       23       24 ar
  25       24       25 1
  26       25       26 1
  27       26       27 2
  28       27       28 1
  29       27       29 1
  30       29       30 2
  31       30       25 1
  32       30       31 1
  33       24       32 ar
  34       32       33 ar
  35       33       21 ar
  36        6       34 ar
  37       34       35 ar
  38       35        3 ar
  39       35       36 1
  40        1       37 1
  41        1       38 1
  42        1       39 1
  43        4       40 1
  44        5       41 1
  45        7       42 1
  46        7       43 1
  47        9       44 1
  48        9       45 1
  49        9       46 1
  50       14       47 1
  51       14       48 1
  52       16       49 1
  53       16       50 1
  54       16       51 1
  55       17       52 1
  56       17       53 1
  57       17       54 1
  58       18       55 1
  59       18       56 1
  60       18       57 1
  61       20       58 1
  62       20       59 1
  63       22       60 1
  64       23       61 1
  65       28       62 1
  66       28       63 1
  67       28       64 1
  68       29       65 1
  69       31       66 1
  70       31       67 1
  71       31       68 1
  72       33       69 1
  73       34       70 1
  74       36       71 1

@<TRIPOS>MOLECULE

  71   74
SMALL
USER_CHARGES
@<TRIPOS>ATOM
   1 C1          -2.7199     0.1299     6.2437 C.3          1    LIG   0.0000
   2 O2          -3.7059    -0.1316     5.2560 O.3          1    LIG   0.0000
   3 C3          -3.3993     0.2767     4.0063 C.ar         1    LIG   0.0000
   4 C4          -2.1805     0.9054     3.7737 C.ar         1    LIG   0.0000
   5 C5          -1.8696     1.3250     2.4841 C.ar         1    LIG   0.0000
   6 C6          -2.7727     1.1135     1.4469 C.ar         1    LIG   0.0000
   7 C7          -2.4350     1.5722     0.0375 C.3          1    LIG   0.0000
   8 N8          -1.1074     2.2034     0.0325 N.pl3        1    LIG   0.0000
   9 C9          -0.9901     3.6686     0.0483 C.3          1    LIG   0.0000
  10 C10          0.0426     1.4109     0.0126 C.2          1    LIG   0.0000
  11 N11          1.2808     1.8391     0.0060 N.2          1    LIG   0.0000
  12 N12          2.0968     0.8006    -0.0246 N.2          1    LIG   0.0000
  13 C13          1.4004    -0.3102    -0.0301 C.2          1    LIG   0.0000
  14 C14          1.9531    -1.7256    -0.0595 C.3          1    LIG   0.0000
  15 C15          3.3992    -1.7147     0.4085 C.3          1    LIG   0.0000
  16 C16          3.9520    -3.1303     0.3792 C.3          1    LIG   0.0000
  17 C17          4.2232    -0.8298    -0.5126 C.3          1    LIG   0.0000
  18 C18          3.4686    -1.1730     1.8270 C.3          1    LIG   0.0000
  19 N19          0.0889     0.0505    -0.0083 N.pl3        1    LIG   0.0000
  20 C20         -1.0627    -0.8618    -0.0041 C.3          1    LIG   0.0000
  21 C21         -1.4821    -1.1553    -1.4362 C.ar         1    LIG   0.0000
  22 C22         -2.8171    -1.0230    -1.8050 C.ar         1    LIG   0.0000
  23 C23         -3.2070    -1.2892    -3.1134 C.ar         1    LIG   0.0000
  24 C24         -2.2467    -1.6889    -4.0372 C.ar         1    LIG   0.0000
  25 N25         -2.6544    -1.9556    -5.3508 N.pl3        1    LIG   0.0000
  26 N26         -2.0398    -1.5475    -6.4349 N.2          1    LIG   0.0000
  27 C27         -2.6809    -1.9689    -7.4994 C.2          1    LIG   0.0000
  28 C28         -2.2841    -1.7031    -8.9418 C.3          1    LIG   0.0000
  29 C29         -3.7998    -2.7112    -7.0696 C.2          1    LIG   0.0000
  30 C30         -3.7491    -2.6800    -5.7120 C.2          1    LIG   0.0000
  31 C31         -4.7411    -3.3403    -4.7684 C.3          1    LIG   0.0000
  32 N32         -0.9644    -1.8119    -3.6621 N.ar         1    LIG   0.0000
  33 C33         -0.5691    -1.5582    -2.4057 C.ar         1    LIG   0.0000
  34 C34         -3.9927     0.4861     1.6748 C.ar         1    LIG   0.0000
  35 C35         -4.2990     0.0686     2.9655 C.ar         1    LIG   0.0000
  36 O36         -5.4766    -0.5414     3.2158 O.3          1    LIG   0.0000
  37 H           -3.0379    -0.2075     7.1297 H            1    LIG   0.0000
  38 H           -1.8691    -0.3337     5.9963 H            1    LIG   0.0000
  39 H           -2.5582     1.1151     6.3007 H            1    LIG   0.0000
  40 H           -1.5359     1.0538     4.5238 H            1    LIG   0.0000
  41 H           -0.9971     1.7786     2.3026 H            1    LIG   0.0000
  42 H           -2.4316     0.7838    -0.5778 H            1    LIG   0.0000
  43 H           -3.1194     2.2328    -0.2710 H            1    LIG   0.0000
  44 H           -1.9033     4.0759     0.0615 H            1    LIG   0.0000
  45 H           -0.4861     3.9538     0.8635 H            1    LIG   0.0000
  46 H           -0.5013     3.9727    -0.7693 H            1    LIG   0.0000
  47 H            1.9075    -2.0820    -0.9927 H            1    LIG   0.0000
  48 H            1.4110    -2.3078     0.5465 H            1    LIG   0.0000
  49 H            4.9034    -3.1231     0.6870 H            1    LIG   0.0000
  50 H            3.4099    -3.7125     0.9852 H            1    LIG   0.0000
  51 H            3.9063    -3.4867    -0.5541 H            1    LIG   0.0000
  52 H            5.1746    -0.8226    -0.2047 H            1    LIG   0.0000
  53 H            4.1775    -1.1862    -1.4458 H            1    LIG   0.0000
  54 H            3.8595     0.1015    -0.4933 H            1    LIG   0.0000
  55 H            4.4200    -1.1658     2.1349 H            1    LIG   0.0000
  56 H            3.1050    -0.2417     1.8464 H            1    LIG   0.0000
  57 H            2.9266    -1.7552     2.4330 H            1    LIG   0.0000
  58 H           -1.8235    -0.4359     0.4855 H            1    LIG   0.0000
  59 H           -0.8098    -1.7156     0.4508 H            1    LIG   0.0000
  60 H           -3.4964    -0.7364    -1.1294 H            1    LIG   0.0000
  61 H           -4.1644    -1.1946    -3.3863 H            1    LIG   0.0000
  62 H           -2.9439    -2.1380    -9.5545 H            1    LIG   0.0000
  63 H           -2.2740    -0.7172    -9.1084 H            1    LIG   0.0000
  64 H           -1.3733    -2.0793    -9.1117 H            1    LIG   0.0000
  65 H           -4.4842    -3.1637    -7.6413 H            1    LIG   0.0000
  66 H           -5.4475    -3.8069    -5.3007 H            1    LIG   0.0000
  67 H           -4.2632    -4.0049    -4.1940 H            1    LIG   0.0000
  68 H           -5.1652    -2.6437    -4.1898 H            1    LIG   0.0000
  69 H            0.3955    -1.6602    -2.1623 H            1    LIG   0.0000
  70 H           -4.6375     0.3381     0.9249 H            1    LIG   0.0000
  71 H           -6.1283    -0.6945     2.4728 H            1    LIG   0.0000
@<TRIPOS>BOND
   1        1        2 1
   2        2        3 1
   3        3        4 ar
   4        4        5 ar
   5        5        6 ar
   6        6        7 1
   7        7        8 1
   8        8        9 1
   9        8       10 1
  10       10       11 2
  11       11       12 1
  12       12       13 2
  13       13       14 1
  14       14       15 1
  15       15       16 1
  16       15       17 1
  17       15       18 1
  18       13       19 1
  19       19       10 1
  20       19       20 1
  21       20       21 1
  22       21       22 ar
  23       22       23 ar
  24       23       24 ar
  25       24       25 1
  26       25       26 1
  27       26       27 2
  28       27       28 1
  29       27       29 1
  30       29       30 2
  31       30       25 1
  32       30       31 1
  33       24       32 ar
  34       32       33 ar
  35       33       21 ar
  36        6       34 ar
  37       34       35 ar
  38       35        3 ar
  39       35       36 1
  40        1       37 1
  41        1       38 1
  42        1       39 1
  43        4       40 1
  44        5       41 1
  45        7       42 1
  46        7       43 1
  47        9       44 1
  48        9       45 1
  49        9       46 1
  50       14       47 1
  51       14       48 1
  52       16       49 1
  53       16       50 1
  54       16       51 1
  55       17       52 1
  56       17       53 1
  57       17       54 1
  58       18       55 1
  59       18       56 1
  60       18       57 1
  61       20       58 1
  62       20       59 1
  63       22       60 1
  64       23       61 1
  65       28       62 1
  66       28       63 1
  67       28       64 1
  68       29       65 1
  69       31       66 1
  70       31       67 1
  71       31       68 1
  72       33       69 1
  73       34       70 1
  74       36       71 1

@<TRIPOS>MOLECULE

  71   74
SMALL
USER_CHARGES
@<TRIPOS>ATOM
   1 C1          -2.9727     0.4919     6.3000 C.3          1    LIG   0.0000
   2 O2          -3.7059    -0.1316     5.2560 O.3          1    LIG   0.0000
   3 C3          -3.3993     0.2767     4.0063 C.ar         1    LIG   0.0000
   4 C4          -2.1805     0.9054     3.7737 C.ar         1    LIG   0.0000
   5 C5          -1.8696     1.3250     2.4841 C.ar         1    LIG   0.0000
   6 C6          -2.7727     1.1135     1.4469 C.ar         1    LIG   0.0000
   7 C7          -2.4350     1.5722     0.0375 C.3          1    LIG   0.0000
   8 N8          -1.1074     2.2034     0.0325 N.pl3        1    LIG   0.0000
   9 C9          -0.9901     3.6686     0.0483 C.3          1    LIG   0.0000
  10 C10          0.0426     1.4109     0.0126 C.2          1    LIG   0.0000
  11 N11          1.2808     1.8391     0.0060 N.2          1    LIG   0.0000
  12 N12          2.0968     0.8006    -0.0246 N.2          1    LIG   0.0000
  13 C13          1.4004    -0.3102    -0.0301 C.2          1    LIG   0.0000
  14 C14          1.9531    -1.7256    -0.0595 C.3          1    LIG   0.0000
  15 C15          3.3840    -1.7003    -0.5715 C.3          1    LIG   0.0000
  16 C16          3.7690    -3.0843    -1.0684 C.3          1    LIG   0.0000
  17 C17          3.4961    -0.7029    -1.7130 C.3          1    LIG   0.0000
  18 C18          4.3180    -1.2884     0.5547 C.3          1    LIG   0.0000
  19 N19          0.0889     0.0505    -0.0083 N.pl3        1    LIG   0.0000
  20 C20         -1.0627    -0.8618    -0.0041 C.3          1    LIG   0.0000
  21 C21         -1.4821    -1.1553    -1.4362 C.ar         1    LIG   0.0000
  22 C22         -1.6665    -2.4724    -1.8450 C.ar         1    LIG   0.0000
  23 C23         -2.0508    -2.7474    -3.1532 C.ar         1    LIG   0.0000
  24 C24         -2.2433    -1.6911    -4.0377 C.ar         1    LIG   0.0000
  25 N25         -2.6283    -1.9834    -5.3527 N.pl3        1    LIG   0.0000
  26 N26         -2.3307    -1.2657    -6.4091 N.2          1    LIG   0.0000
  27 C27         -2.8437    -1.8159    -7.4841 C.2          1    LIG   0.0000
  28 C28         -2.7203    -1.2846    -8.9023 C.3          1    LIG   0.0000
  29 C29         -3.5271    -2.9850    -7.0922 C.2          1    LIG   0.0000
  30 C30         -3.3692    -3.0563    -5.7444 C.2          1    LIG   0.0000
  31 C31         -3.9228    -4.1448    -4.8393 C.3          1    LIG   0.0000
  32 N32         -2.0595    -0.4278    -3.6250 N.ar         1    LIG   0.0000
  33 C33         -1.6904    -0.1427    -2.3674 C.ar         1    LIG   0.0000
  34 C34         -3.9927     0.4861     1.6748 C.ar         1    LIG   0.0000
  35 C35         -4.2990     0.0686     2.9655 C.ar         1    LIG   0.0000
  36 O36         -5.4766    -0.5414     3.2158 O.3          1    LIG   0.0000
  37 H           -3.2700     0.1248     7.1814 H            1    LIG   0.0000
  38 H           -1.9970     0.3115     6.1758 H            1    LIG   0.0000
  39 H           -3.1348     1.4784     6.2780 H            1    LIG   0.0000
  40 H           -1.5359     1.0538     4.5238 H            1    LIG   0.0000
  41 H           -0.9971     1.7786     2.3026 H            1    LIG   0.0000
  42 H           -2.4316     0.7838    -0.5778 H            1    LIG   0.0000
  43 H           -3.1194     2.2328    -0.2710 H            1    LIG   0.0000
  44 H           -1.9033     4.0759     0.0615 H            1    LIG   0.0000
  45 H           -0.4861     3.9538     0.8635 H            1    LIG   0.0000
  46 H           -0.5013     3.9727    -0.7693 H            1    LIG   0.0000
  47 H            1.3922    -2.2900    -0.6652 H            1    LIG   0.0000
  48 H            1.9362    -2.1093     0.8639 H            1    LIG   0.0000
  49 H            4.7104    -3.0676    -1.4053 H            1    LIG   0.0000
  50 H            3.6952    -3.7405    -0.3174 H            1    LIG   0.0000
  51 H            3.1545    -3.3552    -1.8093 H            1    LIG   0.0000
  52 H            4.4375    -0.6862    -2.0499 H            1    LIG   0.0000
  53 H            2.8817    -0.9738    -2.4540 H            1    LIG   0.0000
  54 H            3.2429     0.2076    -1.3861 H            1    LIG   0.0000
  55 H            5.2594    -1.2717     0.2179 H            1    LIG   0.0000
  56 H            4.0648    -0.3779     0.8816 H            1    LIG   0.0000
  57 H            4.2443    -1.9446     1.3057 H            1    LIG   0.0000
  58 H           -1.8235    -0.4359     0.4855 H            1    LIG   0.0000
  59 H           -0.8098    -1.7156     0.4508 H            1    LIG   0.0000
  60 H           -1.5226    -3.2214    -1.1982 H            1    LIG   0.0000
  61 H           -2.1869    -3.6914    -3.4537 H            1    LIG   0.0000
  62 H           -3.2037    -1.8948    -9.5300 H            1    LIG   0.0000
  63 H           -3.1213    -0.3699    -8.9516 H            1    LIG   0.0000
  64 H           -1.7548    -1.2396    -9.1586 H            1    LIG   0.0000
  65 H           -4.0221    -3.6249    -7.6802 H            1    LIG   0.0000
  66 H           -4.4286    -4.8099    -5.3887 H            1    LIG   0.0000
  67 H           -3.1683    -4.6045    -4.3709 H            1    LIG   0.0000
  68 H           -4.5356    -3.7362    -4.1630 H            1    LIG   0.0000
  69 H           -1.5632     0.8111    -2.0952 H            1    LIG   0.0000
  70 H           -4.6375     0.3381     0.9249 H            1    LIG   0.0000
  71 H           -6.1283    -0.6945     2.4728 H            1    LIG   0.0000
@<TRIPOS>BOND
   1        1        2 1
   2        2        3 1
   3        3        4 ar
   4        4        5 ar
   5        5        6 ar
   6        6        7 1
   7        7        8 1
   8        8        9 1
   9        8       10 1
  10       10       11 2
  11       11       12 1
  12       12       13 2
  13       13       14 1
  14       14       15 1
  15       15       16 1
  16       15       17 1
  17       15       18 1
  18       13       19 1
  19       19       10 1
  20       19       20 1
  21       20       21 1
  22       21       22 ar
  23       22       23 ar
  24       23       24 ar
  25       24       25 1
  26       25       26 1
  27       26       27 2
  28       27       28 1
  29       27       29 1
  30       29       30 2
  31       30       25 1
  32       30       31 1
  33       24       32 ar
  34       32       33 ar
  35       33       21 ar
  36        6       34 ar
  37       34       35 ar
  38       35        3 ar
  39       35       36 1
  40        1       37 1
  41        1       38 1
  42        1       39 1
  43        4       40 1
  44        5       41 1
  45        7       42 1
  46        7       43 1
  47        9       44 1
  48        9       45 1
  49        9       46 1
  50       14       47 1
  51       14       48 1
  52       16       49 1
  53       16       50 1
  54       16       51 1
  55       17       52 1
  56       17       53 1
  57       17       54 1
  58       18       55 1
  59       18       56 1
  60       18       57 1
  61       20       58 1
  62       20       59 1
  63       22       60 1
  64       23       61 1
  65       28       62 1
  66       28       63 1
  67       28       64 1
  68       29       65 1
  69       31       66 1
  70       31       67 1
  71       31       68 1
  72       33       69 1
  73       34       70 1
  74       36       71 1

