@<TRIPOS>MOLECULE
*****
 71 74 0 0 0
SMALL
USER_CHARGES

@<TRIPOS>ATOM
      1 C1         -2.7199    0.1299    6.2437 C.3     1  LIG1        0.0000
      2 O2         -3.7059   -0.1316    5.2560 O.3     1  LIG1        0.0000
      3 C3         -3.3993    0.2767    4.0063 C.ar    1  LIG1        0.0000
      4 C4         -2.1805    0.9054    3.7737 C.ar    1  LIG1        0.0000
      5 C5         -1.8696    1.3250    2.4841 C.ar    1  LIG1        0.0000
      6 C6         -2.7727    1.1135    1.4469 C.ar    1  LIG1        0.0000
      7 C7         -2.4350    1.5722    0.0375 C.3     1  LIG1        0.0000
      8 N8         -1.1074    2.2034    0.0325 N.pl3   1  LIG1        0.0000
      9 C9         -0.9901    3.6686    0.0483 C.3     1  LIG1        0.0000
     10 C10         0.0426    1.4109    0.0126 C.2     1  LIG1        0.0000
     11 N11         1.2808    1.8391    0.0060 N.2     1  LIG1        0.0000
     12 N12         2.0968    0.8006   -0.0246 N.2     1  LIG1        0.0000
     13 C13         1.4004   -0.3102   -0.0301 C.2     1  LIG1        0.0000
     14 C14         1.9531   -1.7256   -0.0595 C.3     1  LIG1        0.0000
     15 C15         3.3992   -1.7147    0.4085 C.3     1  LIG1        0.0000
     16 C16         3.9520   -3.1303    0.3792 C.3     1  LIG1        0.0000
     17 C17         4.2232   -0.8298   -0.5126 C.3     1  LIG1        0.0000
     18 C18         3.4686   -1.1730    1.8270 C.3     1  LIG1        0.0000
     19 N19         0.0889    0.0505   -0.0083 N.pl3   1  LIG1        0.0000
     20 C20        -1.0627   -0.8618   -0.0041 C.3     1  LIG1        0.0000
     21 C21        -1.4821   -1.1553   -1.4362 C.ar    1  LIG1        0.0000
     22 C22        -2.8171   -1.0230   -1.8050 C.ar    1  LIG1        0.0000
     23 C23        -3.2070   -1.2892   -3.1134 C.ar    1  LIG1        0.0000
     24 C24        -2.2467   -1.6889   -4.0372 C.ar    1  LIG1        0.0000
     25 N25        -2.6544   -1.9556   -5.3508 N.pl3   1  LIG1        0.0000
     26 N26        -3.8938   -2.1331   -5.7406 N.2     1  LIG1        0.0000
     27 C27        -3.9292   -2.3631   -7.0319 C.2     1  LIG1        0.0000
     28 C28        -5.1789   -2.6187   -7.8574 C.3     1  LIG1        0.0000
     29 C29        -2.6060   -2.3300   -7.5175 C.2     1  LIG1        0.0000
     30 C30        -1.8329   -2.0713   -6.4303 C.2     1  LIG1        0.0000
     31 C31        -0.3190   -1.9348   -6.4263 C.3     1  LIG1        0.0000
     32 N32        -0.9644   -1.8119   -3.6621 N.ar    1  LIG1        0.0000
     33 C33        -0.5691   -1.5582   -2.4057 C.ar    1  LIG1        0.0000
     34 C34        -3.9927    0.4861    1.6748 C.ar    1  LIG1        0.0000
     35 C35        -4.2990    0.0686    2.9655 C.ar    1  LIG1        0.0000
     36 O36        -5.4766   -0.5414    3.2158 O.3     1  LIG1        0.0000
     37 H          -3.0379   -0.2075    7.1297 H       1  LIG1        0.0000
     38 H          -1.8691   -0.3337    5.9963 H       1  LIG1        0.0000
     39 H          -2.5582    1.1151    6.3007 H       1  LIG1        0.0000
     40 H          -1.5359    1.0538    4.5238 H       1  LIG1        0.0000
     41 H          -0.9971    1.7786    2.3026 H       1  LIG1        0.0000
     42 H          -2.4316    0.7838   -0.5778 H       1  LIG1        0.0000
     43 H          -3.1194    2.2328   -0.2710 H       1  LIG1        0.0000
     44 H          -1.9033    4.0759    0.0615 H       1  LIG1        0.0000
     45 H          -0.4861    3.9538    0.8635 H       1  LIG1        0.0000
     46 H          -0.5013    3.9727   -0.7693 H       1  LIG1        0.0000
     47 H           1.9075   -2.0820   -0.9927 H       1  LIG1        0.0000
     48 H           1.4110   -2.3078    0.5465 H       1  LIG1        0.0000
     49 H           4.9034   -3.1231    0.6870 H       1  LIG1        0.0000
     50 H           3.4099   -3.7125    0.9852 H       1  LIG1        0.0000
     51 H           3.9063   -3.4867   -0.5541 H       1  LIG1        0.0000
     52 H           5.1746   -0.8226   -0.2047 H       1  LIG1        0.0000
     53 H           4.1775   -1.1862   -1.4458 H       1  LIG1        0.0000
     54 H           3.8595    0.1015   -0.4933 H       1  LIG1        0.0000
     55 H           4.4200   -1.1658    2.1349 H       1  LIG1        0.0000
     56 H           3.1050   -0.2417    1.8464 H       1  LIG1        0.0000
     57 H           2.9266   -1.7552    2.4330 H       1  LIG1        0.0000
     58 H          -1.8235   -0.4359    0.4855 H       1  LIG1        0.0000
     59 H          -0.8098   -1.7156    0.4508 H       1  LIG1        0.0000
     60 H          -3.4964   -0.7364   -1.1294 H       1  LIG1        0.0000
     61 H          -4.1644   -1.1946   -3.3863 H       1  LIG1        0.0000
     62 H          -4.9231   -2.7640   -8.8132 H       1  LIG1        0.0000
     63 H          -5.6471   -3.4314   -7.5104 H       1  LIG1        0.0000
     64 H          -5.7890   -1.8291   -7.7919 H       1  LIG1        0.0000
     65 H          -2.3016   -2.4676   -8.4600 H       1  LIG1        0.0000
     66 H           0.0300   -2.0663   -7.3542 H       1  LIG1        0.0000
     67 H          -0.0674   -1.0230   -6.1017 H       1  LIG1        0.0000
     68 H           0.0764   -2.6251   -5.8205 H       1  LIG1        0.0000
     69 H           0.3955   -1.6602   -2.1623 H       1  LIG1        0.0000
     70 H          -4.6375    0.3381    0.9249 H       1  LIG1        0.0000
     71 H          -6.1283   -0.6945    2.4728 H       1  LIG1        0.0000
@<TRIPOS>BOND
     1     1     2    1
     2     2     3    1
     3     3     4   ar
     4     4     5   ar
     5     5     6   ar
     6     6     7    1
     7     7     8    1
     8     8     9    1
     9     8    10    1
    10    10    11    2
    11    11    12    1
    12    12    13    2
    13    13    14    1
    14    14    15    1
    15    15    16    1
    16    15    17    1
    17    15    18    1
    18    13    19    1
    19    19    10    1
    20    19    20    1
    21    20    21    1
    22    21    22   ar
    23    22    23   ar
    24    23    24   ar
    25    24    25    1
    26    25    26    1
    27    26    27    2
    28    27    28    1
    29    27    29    1
    30    29    30    2
    31    30    25    1
    32    30    31    1
    33    24    32   ar
    34    32    33   ar
    35    33    21   ar
    36     6    34   ar
    37    34    35   ar
    38    35     3   ar
    39    35    36    1
    40     1    37    1
    41     1    38    1
    42     1    39    1
    43     4    40    1
    44     5    41    1
    45     7    42    1
    46     7    43    1
    47     9    44    1
    48     9    45    1
    49     9    46    1
    50    14    47    1
    51    14    48    1
    52    16    49    1
    53    16    50    1
    54    16    51    1
    55    17    52    1
    56    17    53    1
    57    17    54    1
    58    18    55    1
    59    18    56    1
    60    18    57    1
    61    20    58    1
    62    20    59    1
    63    22    60    1
    64    23    61    1
    65    28    62    1
    66    28    63    1
    67    28    64    1
    68    29    65    1
    69    31    66    1
    70    31    67    1
    71    31    68    1
    72    33    69    1
    73    34    70    1
    74    36    71    1
