@<TRIPOS>MOLECULE
*****
 71 74 0 0 0
SMALL
USER_CHARGES

@<TRIPOS>ATOM
      1 C1         -4.9278   -0.7587    5.4256 C.3     1  LIG1        0.0000
      2 O2         -3.6672   -0.1243    5.2676 O.3     1  LIG1        0.0000
      3 C3         -3.3741    0.2819    4.0141 C.ar    1  LIG1        0.0000
      4 C4         -4.2927    0.0613    2.9930 C.ar    1  LIG1        0.0000
      5 C5         -3.9854    0.4813    1.7026 C.ar    1  LIG1        0.0000
      6 C6         -2.7727    1.1135    1.4469 C.ar    1  LIG1        0.0000
      7 C7         -2.4350    1.5722    0.0375 C.3     1  LIG1        0.0000
      8 N8         -1.1074    2.2034    0.0325 N.pl3   1  LIG1        0.0000
      9 C9         -0.9901    3.6686    0.0483 C.3     1  LIG1        0.0000
     10 C10         0.0426    1.4109    0.0126 C.2     1  LIG1        0.0000
     11 N11         1.2808    1.8391    0.0060 N.2     1  LIG1        0.0000
     12 N12         2.0968    0.8006   -0.0246 N.2     1  LIG1        0.0000
     13 C13         1.4004   -0.3102   -0.0301 C.2     1  LIG1        0.0000
     14 C14         1.9531   -1.7256   -0.0595 C.3     1  LIG1        0.0000
     15 C15         3.3992   -1.7147    0.4085 C.3     1  LIG1        0.0000
     16 C16         3.9520   -3.1303    0.3792 C.3     1  LIG1        0.0000
     17 C17         4.2232   -0.8298   -0.5126 C.3     1  LIG1        0.0000
     18 C18         3.4686   -1.1730    1.8270 C.3     1  LIG1        0.0000
     19 N19         0.0889    0.0505   -0.0083 N.pl3   1  LIG1        0.0000
     20 C20        -1.0627   -0.8618   -0.0041 C.3     1  LIG1        0.0000
     21 C21        -1.4821   -1.1553   -1.4362 C.ar    1  LIG1        0.0000
     22 C22        -0.7866   -0.5741   -2.4918 C.ar    1  LIG1        0.0000
     23 C23        -1.1648   -0.8392   -3.8038 C.ar    1  LIG1        0.0000
     24 C24        -2.2429   -1.6864   -4.0388 C.ar    1  LIG1        0.0000
     25 N25        -2.6137   -1.9426   -5.3654 N.pl3   1  LIG1        0.0000
     26 N26        -2.7255   -1.0408   -6.3108 N.2     1  LIG1        0.0000
     27 C27        -3.0894   -1.6122   -7.4346 C.2     1  LIG1        0.0000
     28 C28        -3.3247   -0.9045   -8.7584 C.3     1  LIG1        0.0000
     29 C29        -3.2221   -2.9956   -7.1979 C.2     1  LIG1        0.0000
     30 C30        -2.9149   -3.1645   -5.8850 C.2     1  LIG1        0.0000
     31 C31        -2.9086   -4.4864   -5.1348 C.3     1  LIG1        0.0000
     32 N32        -2.9018   -2.2365   -3.0076 N.ar    1  LIG1        0.0000
     33 C33        -2.5511   -1.9940   -1.7358 C.ar    1  LIG1        0.0000
     34 C34        -1.8509    1.3356    2.4643 C.ar    1  LIG1        0.0000
     35 C35        -2.1625    0.9139    3.7525 C.ar    1  LIG1        0.0000
     36 O36        -1.2858    1.1150    4.7588 O.3     1  LIG1        0.0000
     37 H          -5.0513   -1.0210    6.3827 H       1  LIG1        0.0000
     38 H          -5.6549   -0.1270    5.1567 H       1  LIG1        0.0000
     39 H          -4.9649   -1.5747    4.8488 H       1  LIG1        0.0000
     40 H          -5.1626   -0.3934    3.1840 H       1  LIG1        0.0000
     41 H          -4.6363    0.3288    0.9589 H       1  LIG1        0.0000
     42 H          -2.4316    0.7838   -0.5778 H       1  LIG1        0.0000
     43 H          -3.1194    2.2328   -0.2710 H       1  LIG1        0.0000
     44 H          -1.9033    4.0759    0.0615 H       1  LIG1        0.0000
     45 H          -0.4861    3.9538    0.8635 H       1  LIG1        0.0000
     46 H          -0.5013    3.9727   -0.7693 H       1  LIG1        0.0000
     47 H           1.9075   -2.0820   -0.9927 H       1  LIG1        0.0000
     48 H           1.4110   -2.3078    0.5465 H       1  LIG1        0.0000
     49 H           4.9034   -3.1231    0.6870 H       1  LIG1        0.0000
     50 H           3.4099   -3.7125    0.9852 H       1  LIG1        0.0000
     51 H           3.9063   -3.4867   -0.5541 H       1  LIG1        0.0000
     52 H           5.1746   -0.8226   -0.2047 H       1  LIG1        0.0000
     53 H           4.1775   -1.1862   -1.4458 H       1  LIG1        0.0000
     54 H           3.8595    0.1015   -0.4933 H       1  LIG1        0.0000
     55 H           4.4200   -1.1658    2.1349 H       1  LIG1        0.0000
     56 H           3.1050   -0.2417    1.8464 H       1  LIG1        0.0000
     57 H           2.9266   -1.7552    2.4330 H       1  LIG1        0.0000
     58 H          -1.8235   -0.4359    0.4855 H       1  LIG1        0.0000
     59 H          -0.8098   -1.7156    0.4508 H       1  LIG1        0.0000
     60 H          -0.0147    0.0343   -2.3072 H       1  LIG1        0.0000
     61 H          -0.6686   -0.4265   -4.5676 H       1  LIG1        0.0000
     62 H          -3.5933   -1.5739   -9.4511 H       1  LIG1        0.0000
     63 H          -4.0522   -0.2271   -8.6496 H       1  LIG1        0.0000
     64 H          -2.4833   -0.4468   -9.0459 H       1  LIG1        0.0000
     65 H          -3.4859   -3.7015   -7.8553 H       1  LIG1        0.0000
     66 H          -3.1687   -5.2243   -5.7575 H       1  LIG1        0.0000
     67 H          -1.9920   -4.6613   -4.7751 H       1  LIG1        0.0000
     68 H          -3.5610   -4.4434   -4.3781 H       1  LIG1        0.0000
     69 H          -3.0652   -2.4221   -0.9925 H       1  LIG1        0.0000
     70 H          -0.9807    1.7898    2.2733 H       1  LIG1        0.0000
     71 H          -0.4130    1.5685    4.5784 H       1  LIG1        0.0000
@<TRIPOS>BOND
     1     1     2    1
     2     2     3    1
     3     3     4   ar
     4     4     5   ar
     5     5     6   ar
     6     6     7    1
     7     7     8    1
     8     8     9    1
     9     8    10    1
    10    10    11    2
    11    11    12    1
    12    12    13    2
    13    13    14    1
    14    14    15    1
    15    15    16    1
    16    15    17    1
    17    15    18    1
    18    13    19    1
    19    19    10    1
    20    19    20    1
    21    20    21    1
    22    21    22   ar
    23    22    23   ar
    24    23    24   ar
    25    24    25    1
    26    25    26    1
    27    26    27    2
    28    27    28    1
    29    27    29    1
    30    29    30    2
    31    30    25    1
    32    30    31    1
    33    24    32   ar
    34    32    33   ar
    35    33    21   ar
    36     6    34   ar
    37    34    35   ar
    38    35     3   ar
    39    35    36    1
    40     1    37    1
    41     1    38    1
    42     1    39    1
    43     4    40    1
    44     5    41    1
    45     7    42    1
    46     7    43    1
    47     9    44    1
    48     9    45    1
    49     9    46    1
    50    14    47    1
    51    14    48    1
    52    16    49    1
    53    16    50    1
    54    16    51    1
    55    17    52    1
    56    17    53    1
    57    17    54    1
    58    18    55    1
    59    18    56    1
    60    18    57    1
    61    20    58    1
    62    20    59    1
    63    22    60    1
    64    23    61    1
    65    28    62    1
    66    28    63    1
    67    28    64    1
    68    29    65    1
    69    31    66    1
    70    31    67    1
    71    31    68    1
    72    33    69    1
    73    34    70    1
    74    36    71    1
