@<TRIPOS>MOLECULE
*****
 71 74 0 0 0
SMALL
USER_CHARGES

@<TRIPOS>ATOM
      1 C1         -4.9278   -0.7587    5.4256 C.3     1  LIG1        0.0000
      2 O2         -3.6672   -0.1243    5.2676 O.3     1  LIG1        0.0000
      3 C3         -3.3741    0.2819    4.0141 C.ar    1  LIG1        0.0000
      4 C4         -4.2927    0.0613    2.9930 C.ar    1  LIG1        0.0000
      5 C5         -3.9854    0.4813    1.7026 C.ar    1  LIG1        0.0000
      6 C6         -2.7727    1.1135    1.4469 C.ar    1  LIG1        0.0000
      7 C7         -2.4350    1.5722    0.0375 C.3     1  LIG1        0.0000
      8 N8         -1.1074    2.2034    0.0325 N.pl3   1  LIG1        0.0000
      9 C9         -0.9901    3.6686    0.0483 C.3     1  LIG1        0.0000
     10 C10         0.0426    1.4109    0.0126 C.2     1  LIG1        0.0000
     11 N11         1.2808    1.8391    0.0060 N.2     1  LIG1        0.0000
     12 N12         2.0968    0.8006   -0.0246 N.2     1  LIG1        0.0000
     13 C13         1.4004   -0.3102   -0.0301 C.2     1  LIG1        0.0000
     14 C14         1.9531   -1.7256   -0.0595 C.3     1  LIG1        0.0000
     15 C15         3.3840   -1.7003   -0.5715 C.3     1  LIG1        0.0000
     16 C16         3.9368   -3.1159   -0.6009 C.3     1  LIG1        0.0000
     17 C17         3.4097   -1.1171   -1.9750 C.3     1  LIG1        0.0000
     18 C18         4.2365   -0.8425    0.3492 C.3     1  LIG1        0.0000
     19 N19         0.0889    0.0505   -0.0083 N.pl3   1  LIG1        0.0000
     20 C20        -1.0627   -0.8618   -0.0041 C.3     1  LIG1        0.0000
     21 C21        -1.4821   -1.1553   -1.4362 C.ar    1  LIG1        0.0000
     22 C22        -1.6783   -0.1045   -2.3268 C.ar    1  LIG1        0.0000
     23 C23        -2.0612   -0.3665   -3.6381 C.ar    1  LIG1        0.0000
     24 C24        -2.2450   -1.6861   -4.0382 C.ar    1  LIG1        0.0000
     25 N25        -2.6327   -1.9346   -5.3615 N.pl3   1  LIG1        0.0000
     26 N26        -2.1176   -2.8513   -6.1449 N.2     1  LIG1        0.0000
     27 C27        -2.7047   -2.8201   -7.3180 C.2     1  LIG1        0.0000
     28 C28        -2.3880   -3.7247   -8.4970 C.3     1  LIG1        0.0000
     29 C29        -3.6797   -1.8022   -7.2911 C.2     1  LIG1        0.0000
     30 C30        -3.6041   -1.2680   -6.0439 C.2     1  LIG1        0.0000
     31 C31        -4.4570   -0.1287   -5.5099 C.3     1  LIG1        0.0000
     32 N32        -2.0520   -2.6857   -3.1644 N.ar    1  LIG1        0.0000
     33 C33        -1.6813   -2.4531   -1.8965 C.ar    1  LIG1        0.0000
     34 C34        -1.8509    1.3356    2.4643 C.ar    1  LIG1        0.0000
     35 C35        -2.1625    0.9139    3.7525 C.ar    1  LIG1        0.0000
     36 O36        -1.2858    1.1150    4.7588 O.3     1  LIG1        0.0000
     37 H          -5.0513   -1.0210    6.3827 H       1  LIG1        0.0000
     38 H          -5.6549   -0.1270    5.1567 H       1  LIG1        0.0000
     39 H          -4.9649   -1.5747    4.8488 H       1  LIG1        0.0000
     40 H          -5.1626   -0.3934    3.1840 H       1  LIG1        0.0000
     41 H          -4.6363    0.3288    0.9589 H       1  LIG1        0.0000
     42 H          -2.4316    0.7838   -0.5778 H       1  LIG1        0.0000
     43 H          -3.1194    2.2328   -0.2710 H       1  LIG1        0.0000
     44 H          -1.9033    4.0759    0.0615 H       1  LIG1        0.0000
     45 H          -0.4861    3.9538    0.8635 H       1  LIG1        0.0000
     46 H          -0.5013    3.9727   -0.7693 H       1  LIG1        0.0000
     47 H           1.3922   -2.2900   -0.6652 H       1  LIG1        0.0000
     48 H           1.9362   -2.1093    0.8639 H       1  LIG1        0.0000
     49 H           4.8782   -3.0992   -0.9378 H       1  LIG1        0.0000
     50 H           3.9199   -3.4996    0.3224 H       1  LIG1        0.0000
     51 H           3.3759   -3.6803   -1.2067 H       1  LIG1        0.0000
     52 H           4.3511   -1.1005   -2.3119 H       1  LIG1        0.0000
     53 H           2.8488   -1.6815   -2.5807 H       1  LIG1        0.0000
     54 H           3.0460   -0.1858   -1.9557 H       1  LIG1        0.0000
     55 H           5.1779   -0.8258    0.0123 H       1  LIG1        0.0000
     56 H           3.8729    0.0888    0.3686 H       1  LIG1        0.0000
     57 H           4.2197   -1.2261    1.2726 H       1  LIG1        0.0000
     58 H          -1.8235   -0.4359    0.4855 H       1  LIG1        0.0000
     59 H          -0.8098   -1.7156    0.4508 H       1  LIG1        0.0000
     60 H          -1.5441    0.8391   -2.0242 H       1  LIG1        0.0000
     61 H          -2.2025    0.3835   -4.2844 H       1  LIG1        0.0000
     62 H          -2.9815   -3.4892   -9.2666 H       1  LIG1        0.0000
     63 H          -1.4321   -3.6024   -8.7637 H       1  LIG1        0.0000
     64 H          -2.5421   -4.6778   -8.2367 H       1  LIG1        0.0000
     65 H          -4.2951   -1.5313   -8.0312 H       1  LIG1        0.0000
     66 H          -5.0903    0.1754   -6.2216 H       1  LIG1        0.0000
     67 H          -4.9754   -0.4445   -4.7152 H       1  LIG1        0.0000
     68 H          -3.8665    0.6324   -5.2417 H       1  LIG1        0.0000
     69 H          -1.5463   -3.2234   -1.2732 H       1  LIG1        0.0000
     70 H          -0.9807    1.7898    2.2733 H       1  LIG1        0.0000
     71 H          -0.4130    1.5685    4.5784 H       1  LIG1        0.0000
@<TRIPOS>BOND
     1     1     2    1
     2     2     3    1
     3     3     4   ar
     4     4     5   ar
     5     5     6   ar
     6     6     7    1
     7     7     8    1
     8     8     9    1
     9     8    10    1
    10    10    11    2
    11    11    12    1
    12    12    13    2
    13    13    14    1
    14    14    15    1
    15    15    16    1
    16    15    17    1
    17    15    18    1
    18    13    19    1
    19    19    10    1
    20    19    20    1
    21    20    21    1
    22    21    22   ar
    23    22    23   ar
    24    23    24   ar
    25    24    25    1
    26    25    26    1
    27    26    27    2
    28    27    28    1
    29    27    29    1
    30    29    30    2
    31    30    25    1
    32    30    31    1
    33    24    32   ar
    34    32    33   ar
    35    33    21   ar
    36     6    34   ar
    37    34    35   ar
    38    35     3   ar
    39    35    36    1
    40     1    37    1
    41     1    38    1
    42     1    39    1
    43     4    40    1
    44     5    41    1
    45     7    42    1
    46     7    43    1
    47     9    44    1
    48     9    45    1
    49     9    46    1
    50    14    47    1
    51    14    48    1
    52    16    49    1
    53    16    50    1
    54    16    51    1
    55    17    52    1
    56    17    53    1
    57    17    54    1
    58    18    55    1
    59    18    56    1
    60    18    57    1
    61    20    58    1
    62    20    59    1
    63    22    60    1
    64    23    61    1
    65    28    62    1
    66    28    63    1
    67    28    64    1
    68    29    65    1
    69    31    66    1
    70    31    67    1
    71    31    68    1
    72    33    69    1
    73    34    70    1
    74    36    71    1
