@<TRIPOS>MOLECULE

  30   30
SMALL
USER_CHARGES
@<TRIPOS>ATOM
   1 C1          -5.4405     1.2427     2.2340 C.3          1    LIG   0.0000
   2 C2          -3.9205     1.2272     2.2065 C.2          1    LIG   0.0000
   3 N3          -3.2519     0.6286     1.1695 N.pl3        1    LIG   0.0000
   4 C4          -1.8817     0.6010     1.1205 C.2          1    LIG   0.0000
   5 O5          -1.3153     0.0602     0.1844 O.2          1    LIG   0.0000
   6 C6          -1.1352     1.2060     2.1684 C.2          1    LIG   0.0000
   7 C7           0.3150     1.2060     2.1684 C.2          1    LIG   0.0000
   8 O8           0.9150     1.3865     3.1919 O.2          1    LIG   0.0000
   9 N9           1.0000     1.0000     1.0000 N.am         1    LIG   0.0000
  10 C10          2.4700     1.0000     1.0000 C.3          1    LIG   0.0000
  11 C11          2.9767    -0.3466     1.4901 C.3          1    LIG   0.0000
  12 O12          2.5033    -0.5791     2.8086 O.3          1    LIG   0.0000
  13 C13          2.4700    -1.4444     0.5690 C.3          1    LIG   0.0000
  14 O14          2.9433    -2.7025     1.0269 O.3          1    LIG   0.0000
  15 C15         -1.8004     1.8056     3.2067 C.2          1    LIG   0.0000
  16 C16         -3.2210     1.8174     3.2280 C.2          1    LIG   0.0000
  17 Br17        -4.1373     2.6843     4.7284 Br           1    LIG   0.0000
  18 H           -3.7757     0.2024     0.4319 H            1    LIG   0.0000
  19 H            3.9767    -0.3466     1.4901 H            1    LIG   0.0000
  20 H           -5.7542     1.7174     3.0563 H            1    LIG   0.0000
  21 H           -5.7837     1.7175     1.4236 H            1    LIG   0.0000
  22 H           -5.7833     0.3033     2.2401 H            1    LIG   0.0000
  23 H            0.5000     0.8496     0.1471 H            1    LIG   0.0000
  24 H            2.8033     1.7222     1.6060 H            1    LIG   0.0000
  25 H            2.8033     1.1637     0.0715 H            1    LIG   0.0000
  26 H            2.8367     0.1431     3.4146 H            1    LIG   0.0000
  27 H            1.4700    -1.4444     0.5690 H            1    LIG   0.0000
  28 H            2.8033    -1.2807    -0.3595 H            1    LIG   0.0000
  29 H            2.6100    -3.4247     0.4208 H            1    LIG   0.0000
  30 H           -1.2856     2.2346     3.9490 H            1    LIG   0.0000
@<TRIPOS>BOND
   1        1        2 1
   2        2        3 1
   3        3        4 1
   4        4        5 2
   5        4        6 1
   6        6        7 1
   7        7        8 2
   8        7        9 am
   9        9       10 1
  10       10       11 1
  11       11       12 1
  12       11       13 1
  13       13       14 1
  14        6       15 2
  15       15       16 1
  16       16        2 2
  17       16       17 1
  18        3       18 1
  19       11       19 1
  20        1       20 1
  21        1       21 1
  22        1       22 1
  23        9       23 1
  24       10       24 1
  25       10       25 1
  26       12       26 1
  27       13       27 1
  28       13       28 1
  29       14       29 1
  30       15       30 1

@<TRIPOS>MOLECULE

  30   30
SMALL
USER_CHARGES
@<TRIPOS>ATOM
   1 C1          -5.4405     1.2427     2.2340 C.3          1    LIG   0.0000
   2 C2          -3.9205     1.2272     2.2065 C.2          1    LIG   0.0000
   3 N3          -3.2519     0.6286     1.1695 N.pl3        1    LIG   0.0000
   4 C4          -1.8817     0.6010     1.1205 C.2          1    LIG   0.0000
   5 O5          -1.3153     0.0602     0.1844 O.2          1    LIG   0.0000
   6 C6          -1.1352     1.2060     2.1684 C.2          1    LIG   0.0000
   7 C7           0.3150     1.2060     2.1684 C.2          1    LIG   0.0000
   8 O8           0.9150     1.3865     3.1919 O.2          1    LIG   0.0000
   9 N9           1.0000     1.0000     1.0000 N.am         1    LIG   0.0000
  10 C10          2.4700     1.0000     1.0000 C.3          1    LIG   0.0000
  11 C11          2.9767    -0.3466     1.4901 C.3          1    LIG   0.0000
  12 O12          2.5033    -1.3722     0.6296 O.3          1    LIG   0.0000
  13 C13          4.4967    -0.3466     1.4901 C.3          1    LIG   0.0000
  14 O14          4.9700    -1.6047     1.9480 O.3          1    LIG   0.0000
  15 C15         -1.8004     1.8056     3.2067 C.2          1    LIG   0.0000
  16 C16         -3.2210     1.8174     3.2280 C.2          1    LIG   0.0000
  17 Br17        -4.1373     2.6843     4.7284 Br           1    LIG   0.0000
  18 H           -3.7757     0.2024     0.4319 H            1    LIG   0.0000
  19 H            2.6433    -0.5104     2.4186 H            1    LIG   0.0000
  20 H           -5.7542     1.7174     3.0563 H            1    LIG   0.0000
  21 H           -5.7837     1.7175     1.4236 H            1    LIG   0.0000
  22 H           -5.7833     0.3033     2.2401 H            1    LIG   0.0000
  23 H            0.5000     0.8496     0.1471 H            1    LIG   0.0000
  24 H            2.8033     1.7222     1.6060 H            1    LIG   0.0000
  25 H            2.8033     1.1637     0.0715 H            1    LIG   0.0000
  26 H            1.5033    -1.3722     0.6296 H            1    LIG   0.0000
  27 H            4.8300    -0.1829     0.5617 H            1    LIG   0.0000
  28 H            4.8300     0.3756     2.0962 H            1    LIG   0.0000
  29 H            5.9700    -1.6047     1.9480 H            1    LIG   0.0000
  30 H           -1.2856     2.2346     3.9490 H            1    LIG   0.0000
@<TRIPOS>BOND
   1        1        2 1
   2        2        3 1
   3        3        4 1
   4        4        5 2
   5        4        6 1
   6        6        7 1
   7        7        8 2
   8        7        9 am
   9        9       10 1
  10       10       11 1
  11       11       12 1
  12       11       13 1
  13       13       14 1
  14        6       15 2
  15       15       16 1
  16       16        2 2
  17       16       17 1
  18        3       18 1
  19       11       19 1
  20        1       20 1
  21        1       21 1
  22        1       22 1
  23        9       23 1
  24       10       24 1
  25       10       25 1
  26       12       26 1
  27       13       27 1
  28       13       28 1
  29       14       29 1
  30       15       30 1

@<TRIPOS>MOLECULE

  30   30
SMALL
USER_CHARGES
@<TRIPOS>ATOM
   1 C1          -5.4405     1.2427     2.2340 C.3          1    LIG   0.0000
   2 C2          -3.9205     1.2272     2.2065 C.2          1    LIG   0.0000
   3 N3          -3.2519     0.6286     1.1695 N.pl3        1    LIG   0.0000
   4 C4          -1.8817     0.6010     1.1205 C.2          1    LIG   0.0000
   5 O5          -1.3153     0.0602     0.1844 O.2          1    LIG   0.0000
   6 C6          -1.1352     1.2060     2.1684 C.2          1    LIG   0.0000
   7 C7           0.3150     1.2060     2.1684 C.2          1    LIG   0.0000
   8 O8           0.9150     1.3865     3.1919 O.2          1    LIG   0.0000
   9 N9           1.0000     1.0000     1.0000 N.am         1    LIG   0.0000
  10 C10          2.4700     1.0000     1.0000 C.3          1    LIG   0.0000
  11 C11          2.9767    -0.3466     1.4901 C.3          1    LIG   0.0000
  12 O12          4.3967    -0.3466     1.4901 O.3          1    LIG   0.0000
  13 C13          2.4700    -0.5955     2.9014 C.3          1    LIG   0.0000
  14 O14          2.9433    -1.8535     3.3593 O.3          1    LIG   0.0000
  15 C15         -1.8004     1.8056     3.2067 C.2          1    LIG   0.0000
  16 C16         -3.2210     1.8174     3.2280 C.2          1    LIG   0.0000
  17 Br17        -4.1373     2.6843     4.7284 Br           1    LIG   0.0000
  18 H           -3.7757     0.2024     0.4319 H            1    LIG   0.0000
  19 H            2.6433    -1.0689     0.8841 H            1    LIG   0.0000
  20 H           -5.7542     1.7174     3.0563 H            1    LIG   0.0000
  21 H           -5.7837     1.7175     1.4236 H            1    LIG   0.0000
  22 H           -5.7833     0.3033     2.2401 H            1    LIG   0.0000
  23 H            0.5000     0.8496     0.1471 H            1    LIG   0.0000
  24 H            2.8033     1.7222     1.6060 H            1    LIG   0.0000
  25 H            2.8033     1.1637     0.0715 H            1    LIG   0.0000
  26 H            4.7300    -0.1829     0.5617 H            1    LIG   0.0000
  27 H            2.8033     0.1267     3.5075 H            1    LIG   0.0000
  28 H            1.4700    -0.5955     2.9014 H            1    LIG   0.0000
  29 H            2.6100    -2.0173     4.2878 H            1    LIG   0.0000
  30 H           -1.2856     2.2346     3.9490 H            1    LIG   0.0000
@<TRIPOS>BOND
   1        1        2 1
   2        2        3 1
   3        3        4 1
   4        4        5 2
   5        4        6 1
   6        6        7 1
   7        7        8 2
   8        7        9 am
   9        9       10 1
  10       10       11 1
  11       11       12 1
  12       11       13 1
  13       13       14 1
  14        6       15 2
  15       15       16 1
  16       16        2 2
  17       16       17 1
  18        3       18 1
  19       11       19 1
  20        1       20 1
  21        1       21 1
  22        1       22 1
  23        9       23 1
  24       10       24 1
  25       10       25 1
  26       12       26 1
  27       13       27 1
  28       13       28 1
  29       14       29 1
  30       15       30 1

@<TRIPOS>MOLECULE

  30   30
SMALL
USER_CHARGES
@<TRIPOS>ATOM
   1 C1          -5.4405     1.2427     2.2340 C.3          1    LIG   0.0000
   2 C2          -3.9205     1.2272     2.2065 C.2          1    LIG   0.0000
   3 N3          -3.2519     0.6286     1.1695 N.pl3        1    LIG   0.0000
   4 C4          -1.8817     0.6010     1.1205 C.2          1    LIG   0.0000
   5 O5          -1.3153     0.0602     0.1844 O.2          1    LIG   0.0000
   6 C6          -1.1352     1.2060     2.1684 C.2          1    LIG   0.0000
   7 C7           0.3150     1.2060     2.1684 C.2          1    LIG   0.0000
   8 O8           0.9150     1.3865     3.1919 O.2          1    LIG   0.0000
   9 N9           1.0000     1.0000     1.0000 N.am         1    LIG   0.0000
  10 C10          2.4700     1.0000     1.0000 C.3          1    LIG   0.0000
  11 C11          2.9767     2.4331     1.0000 C.3          1    LIG   0.0000
  12 O12          2.5033     3.1025    -0.1594 O.3          1    LIG   0.0000
  13 C13          2.4700     3.1496     2.2411 C.3          1    LIG   0.0000
  14 O14          2.9433     4.4884     2.2411 O.3          1    LIG   0.0000
  15 C15         -1.8004     1.8056     3.2067 C.2          1    LIG   0.0000
  16 C16         -3.2210     1.8174     3.2280 C.2          1    LIG   0.0000
  17 Br17        -4.1373     2.6843     4.7284 Br           1    LIG   0.0000
  18 H           -3.7757     0.2024     0.4319 H            1    LIG   0.0000
  19 H            3.9767     2.4331     1.0000 H            1    LIG   0.0000
  20 H           -5.7542     1.7174     3.0563 H            1    LIG   0.0000
  21 H           -5.7837     1.7175     1.4236 H            1    LIG   0.0000
  22 H           -5.7833     0.3033     2.2401 H            1    LIG   0.0000
  23 H            0.5000     0.8496     0.1471 H            1    LIG   0.0000
  24 H            2.8033     0.5286     0.1835 H            1    LIG   0.0000
  25 H            2.8033     0.5286     1.8165 H            1    LIG   0.0000
  26 H            2.8367     2.6311    -0.9759 H            1    LIG   0.0000
  27 H            1.4700     3.1496     2.2411 H            1    LIG   0.0000
  28 H            2.8033     2.6782     3.0576 H            1    LIG   0.0000
  29 H            2.6100     4.9598     3.0576 H            1    LIG   0.0000
  30 H           -1.2856     2.2346     3.9490 H            1    LIG   0.0000
@<TRIPOS>BOND
   1        1        2 1
   2        2        3 1
   3        3        4 1
   4        4        5 2
   5        4        6 1
   6        6        7 1
   7        7        8 2
   8        7        9 am
   9        9       10 1
  10       10       11 1
  11       11       12 1
  12       11       13 1
  13       13       14 1
  14        6       15 2
  15       15       16 1
  16       16        2 2
  17       16       17 1
  18        3       18 1
  19       11       19 1
  20        1       20 1
  21        1       21 1
  22        1       22 1
  23        9       23 1
  24       10       24 1
  25       10       25 1
  26       12       26 1
  27       13       27 1
  28       13       28 1
  29       14       29 1
  30       15       30 1

@<TRIPOS>MOLECULE

  30   30
SMALL
USER_CHARGES
@<TRIPOS>ATOM
   1 C1          -5.4405     1.2427     2.2340 C.3          1    LIG   0.0000
   2 C2          -3.9205     1.2272     2.2065 C.2          1    LIG   0.0000
   3 N3          -3.2519     0.6286     1.1695 N.pl3        1    LIG   0.0000
   4 C4          -1.8817     0.6010     1.1205 C.2          1    LIG   0.0000
   5 O5          -1.3153     0.0602     0.1844 O.2          1    LIG   0.0000
   6 C6          -1.1352     1.2060     2.1684 C.2          1    LIG   0.0000
   7 C7           0.3150     1.2060     2.1684 C.2          1    LIG   0.0000
   8 O8           0.9150     1.3865     3.1919 O.2          1    LIG   0.0000
   9 N9           1.0000     1.0000     1.0000 N.am         1    LIG   0.0000
  10 C10          2.4700     1.0000     1.0000 C.3          1    LIG   0.0000
  11 C11          2.9767     2.4331     1.0000 C.3          1    LIG   0.0000
  12 O12          2.5033     3.1025     2.1594 O.3          1    LIG   0.0000
  13 C13          4.4967     2.4331     1.0000 C.3          1    LIG   0.0000
  14 O14          4.9700     3.7719     1.0000 O.3          1    LIG   0.0000
  15 C15         -1.8004     1.8056     3.2067 C.2          1    LIG   0.0000
  16 C16         -3.2210     1.8174     3.2280 C.2          1    LIG   0.0000
  17 Br17        -4.1373     2.6843     4.7284 Br           1    LIG   0.0000
  18 H           -3.7757     0.2024     0.4319 H            1    LIG   0.0000
  19 H            2.6433     2.9045     0.1835 H            1    LIG   0.0000
  20 H           -5.7542     1.7174     3.0563 H            1    LIG   0.0000
  21 H           -5.7837     1.7175     1.4236 H            1    LIG   0.0000
  22 H           -5.7833     0.3033     2.2401 H            1    LIG   0.0000
  23 H            0.5000     0.8496     0.1471 H            1    LIG   0.0000
  24 H            2.8033     0.5286     0.1835 H            1    LIG   0.0000
  25 H            2.8033     0.5286     1.8165 H            1    LIG   0.0000
  26 H            1.5033     3.1025     2.1594 H            1    LIG   0.0000
  27 H            4.8300     1.9617     1.8165 H            1    LIG   0.0000
  28 H            4.8300     1.9617     0.1835 H            1    LIG   0.0000
  29 H            5.9700     3.7719     1.0000 H            1    LIG   0.0000
  30 H           -1.2856     2.2346     3.9490 H            1    LIG   0.0000
@<TRIPOS>BOND
   1        1        2 1
   2        2        3 1
   3        3        4 1
   4        4        5 2
   5        4        6 1
   6        6        7 1
   7        7        8 2
   8        7        9 am
   9        9       10 1
  10       10       11 1
  11       11       12 1
  12       11       13 1
  13       13       14 1
  14        6       15 2
  15       15       16 1
  16       16        2 2
  17       16       17 1
  18        3       18 1
  19       11       19 1
  20        1       20 1
  21        1       21 1
  22        1       22 1
  23        9       23 1
  24       10       24 1
  25       10       25 1
  26       12       26 1
  27       13       27 1
  28       13       28 1
  29       14       29 1
  30       15       30 1

@<TRIPOS>MOLECULE

  30   30
SMALL
USER_CHARGES
@<TRIPOS>ATOM
   1 C1          -5.4405     1.2427     2.2340 C.3          1    LIG   0.0000
   2 C2          -3.9205     1.2272     2.2065 C.2          1    LIG   0.0000
   3 N3          -3.2519     0.6286     1.1695 N.pl3        1    LIG   0.0000
   4 C4          -1.8817     0.6010     1.1205 C.2          1    LIG   0.0000
   5 O5          -1.3153     0.0602     0.1844 O.2          1    LIG   0.0000
   6 C6          -1.1352     1.2060     2.1684 C.2          1    LIG   0.0000
   7 C7           0.3150     1.2060     2.1684 C.2          1    LIG   0.0000
   8 O8           0.9150     1.3865     3.1919 O.2          1    LIG   0.0000
   9 N9           1.0000     1.0000     1.0000 N.am         1    LIG   0.0000
  10 C10          2.4700     1.0000     1.0000 C.3          1    LIG   0.0000
  11 C11          2.9767     2.4331     1.0000 C.3          1    LIG   0.0000
  12 O12          4.3967     2.4331     1.0000 O.3          1    LIG   0.0000
  13 C13          2.4700     3.1496    -0.2411 C.3          1    LIG   0.0000
  14 O14          2.9433     4.4884    -0.2411 O.3          1    LIG   0.0000
  15 C15         -1.8004     1.8056     3.2067 C.2          1    LIG   0.0000
  16 C16         -3.2210     1.8174     3.2280 C.2          1    LIG   0.0000
  17 Br17        -4.1373     2.6843     4.7284 Br           1    LIG   0.0000
  18 H           -3.7757     0.2024     0.4319 H            1    LIG   0.0000
  19 H            2.6433     2.9045     1.8165 H            1    LIG   0.0000
  20 H           -5.7542     1.7174     3.0563 H            1    LIG   0.0000
  21 H           -5.7837     1.7175     1.4236 H            1    LIG   0.0000
  22 H           -5.7833     0.3033     2.2401 H            1    LIG   0.0000
  23 H            0.5000     0.8496     0.1471 H            1    LIG   0.0000
  24 H            2.8033     0.5286     0.1835 H            1    LIG   0.0000
  25 H            2.8033     0.5286     1.8165 H            1    LIG   0.0000
  26 H            4.7300     1.9617     1.8165 H            1    LIG   0.0000
  27 H            2.8033     2.6782    -1.0576 H            1    LIG   0.0000
  28 H            1.4700     3.1496    -0.2411 H            1    LIG   0.0000
  29 H            2.6100     4.9598    -1.0576 H            1    LIG   0.0000
  30 H           -1.2856     2.2346     3.9490 H            1    LIG   0.0000
@<TRIPOS>BOND
   1        1        2 1
   2        2        3 1
   3        3        4 1
   4        4        5 2
   5        4        6 1
   6        6        7 1
   7        7        8 2
   8        7        9 am
   9        9       10 1
  10       10       11 1
  11       11       12 1
  12       11       13 1
  13       13       14 1
  14        6       15 2
  15       15       16 1
  16       16        2 2
  17       16       17 1
  18        3       18 1
  19       11       19 1
  20        1       20 1
  21        1       21 1
  22        1       22 1
  23        9       23 1
  24       10       24 1
  25       10       25 1
  26       12       26 1
  27       13       27 1
  28       13       28 1
  29       14       29 1
  30       15       30 1

@<TRIPOS>MOLECULE

  30   30
SMALL
USER_CHARGES
@<TRIPOS>ATOM
   1 C1          -4.8670     3.7115     2.1391 C.3          1    LIG   0.0000
   2 C2          -3.4977     3.0508     2.1352 C.2          1    LIG   0.0000
   3 N3          -2.8268     2.8529     0.9556 N.pl3        1    LIG   0.0000
   4 C4          -1.5908     2.2598     0.9245 C.2          1    LIG   0.0000
   5 O5          -1.0187     2.0970    -0.1413 O.2          1    LIG   0.0000
   6 C6          -0.9895     1.8391     2.1422 C.2          1    LIG   0.0000
   7 C7           0.3150     1.2060     2.1684 C.2          1    LIG   0.0000
   8 O8           0.7944     0.8627     3.2135 O.2          1    LIG   0.0000
   9 N9           1.0000     1.0000     1.0000 N.am         1    LIG   0.0000
  10 C10          2.4700     1.0000     1.0000 C.3          1    LIG   0.0000
  11 C11          2.9767     2.2411     0.2835 C.3          1    LIG   0.0000
  12 O12          2.5033     2.2411    -1.0553 O.3          1    LIG   0.0000
  13 C13          2.4700     3.4821     1.0000 C.3          1    LIG   0.0000
  14 O14          2.9433     4.6416     0.3306 O.3          1    LIG   0.0000
  15 C15         -1.6574     2.0355     3.3235 C.2          1    LIG   0.0000
  16 C16         -2.9368     2.6533     3.3220 C.2          1    LIG   0.0000
  17 Br17        -3.8613     2.9180     5.0301 Br           1    LIG   0.0000
  18 H           -3.2487     3.1480     0.0983 H            1    LIG   0.0000
  19 H            3.9767     2.2411     0.2835 H            1    LIG   0.0000
  20 H           -5.2042     3.7740     3.0785 H            1    LIG   0.0000
  21 H           -4.7952     4.6295     1.7490 H            1    LIG   0.0000
  22 H           -5.5020     3.1657     1.5925 H            1    LIG   0.0000
  23 H            0.5000     0.8496     0.1471 H            1    LIG   0.0000
  24 H            2.8033     0.1835     0.5286 H            1    LIG   0.0000
  25 H            2.8033     1.0000     1.9428 H            1    LIG   0.0000
  26 H            2.8367     1.4246    -1.5267 H            1    LIG   0.0000
  27 H            1.4700     3.4821     1.0000 H            1    LIG   0.0000
  28 H            2.8033     3.4821     1.9428 H            1    LIG   0.0000
  29 H            2.6100     5.4581     0.8020 H            1    LIG   0.0000
  30 H           -1.2439     1.7440     4.1861 H            1    LIG   0.0000
@<TRIPOS>BOND
   1        1        2 1
   2        2        3 1
   3        3        4 1
   4        4        5 2
   5        4        6 1
   6        6        7 1
   7        7        8 2
   8        7        9 am
   9        9       10 1
  10       10       11 1
  11       11       12 1
  12       11       13 1
  13       13       14 1
  14        6       15 2
  15       15       16 1
  16       16        2 2
  17       16       17 1
  18        3       18 1
  19       11       19 1
  20        1       20 1
  21        1       21 1
  22        1       22 1
  23        9       23 1
  24       10       24 1
  25       10       25 1
  26       12       26 1
  27       13       27 1
  28       13       28 1
  29       14       29 1
  30       15       30 1

@<TRIPOS>MOLECULE

  30   30
SMALL
USER_CHARGES
@<TRIPOS>ATOM
   1 C1          -5.4405     1.1920     2.2422 C.3          1    LIG   0.0000
   2 C2          -3.9205     1.1978     2.2112 C.2          1    LIG   0.0000
   3 N3          -3.2519     1.4058     1.0320 N.pl3        1    LIG   0.0000
   4 C4          -1.8817     1.4161     0.9768 C.2          1    LIG   0.0000
   5 O5          -1.3153     1.6036    -0.0879 O.2          1    LIG   0.0000
   6 C6          -1.1352     1.2060     2.1684 C.2          1    LIG   0.0000
   7 C7           0.3150     1.2060     2.1684 C.2          1    LIG   0.0000
   8 O8           0.9150     1.3865     3.1919 O.2          1    LIG   0.0000
   9 N9           1.0000     1.0000     1.0000 N.am         1    LIG   0.0000
  10 C10          2.4700     1.0000     1.0000 C.3          1    LIG   0.0000
  11 C11          2.9767     2.2411     0.2835 C.3          1    LIG   0.0000
  12 O12          2.5033     3.4005     0.9529 O.3          1    LIG   0.0000
  13 C13          4.4967     2.2411     0.2835 C.3          1    LIG   0.0000
  14 O14          4.9700     3.4005    -0.3859 O.3          1    LIG   0.0000
  15 C15         -1.8004     0.9979     3.3492 C.2          1    LIG   0.0000
  16 C16         -3.2210     0.9932     3.3731 C.2          1    LIG   0.0000
  17 Br17        -4.1373     0.6929     5.0797 Br           1    LIG   0.0000
  18 H           -3.7757     1.5535     0.1931 H            1    LIG   0.0000
  19 H            2.6433     2.2411    -0.6593 H            1    LIG   0.0000
  20 H           -5.7542     1.0270     3.1773 H            1    LIG   0.0000
  21 H           -5.7837     2.0766     1.9266 H            1    LIG   0.0000
  22 H           -5.7833     0.4684     1.6431 H            1    LIG   0.0000
  23 H            0.5000     0.8496     0.1471 H            1    LIG   0.0000
  24 H            2.8033     0.1835     0.5286 H            1    LIG   0.0000
  25 H            2.8033     1.0000     1.9428 H            1    LIG   0.0000
  26 H            1.5033     3.4005     0.9529 H            1    LIG   0.0000
  27 H            4.8300     2.2411     1.2263 H            1    LIG   0.0000
  28 H            4.8300     1.4246    -0.1879 H            1    LIG   0.0000
  29 H            5.9700     3.4005    -0.3859 H            1    LIG   0.0000
  30 H           -1.2856     0.8494     4.1936 H            1    LIG   0.0000
@<TRIPOS>BOND
   1        1        2 1
   2        2        3 1
   3        3        4 1
   4        4        5 2
   5        4        6 1
   6        6        7 1
   7        7        8 2
   8        7        9 am
   9        9       10 1
  10       10       11 1
  11       11       12 1
  12       11       13 1
  13       13       14 1
  14        6       15 2
  15       15       16 1
  16       16        2 2
  17       16       17 1
  18        3       18 1
  19       11       19 1
  20        1       20 1
  21        1       21 1
  22        1       22 1
  23        9       23 1
  24       10       24 1
  25       10       25 1
  26       12       26 1
  27       13       27 1
  28       13       28 1
  29       14       29 1
  30       15       30 1

@<TRIPOS>MOLECULE

  30   30
SMALL
USER_CHARGES
@<TRIPOS>ATOM
   1 C1          -5.4405     1.1920     2.2422 C.3          1    LIG   0.0000
   2 C2          -3.9205     1.1978     2.2112 C.2          1    LIG   0.0000
   3 N3          -3.2519     1.4058     1.0320 N.pl3        1    LIG   0.0000
   4 C4          -1.8817     1.4161     0.9768 C.2          1    LIG   0.0000
   5 O5          -1.3153     1.6036    -0.0879 O.2          1    LIG   0.0000
   6 C6          -1.1352     1.2060     2.1684 C.2          1    LIG   0.0000
   7 C7           0.3150     1.2060     2.1684 C.2          1    LIG   0.0000
   8 O8           0.9150     1.3865     3.1919 O.2          1    LIG   0.0000
   9 N9           1.0000     1.0000     1.0000 N.am         1    LIG   0.0000
  10 C10          2.4700     1.0000     1.0000 C.3          1    LIG   0.0000
  11 C11          2.9767     2.2411     0.2835 C.3          1    LIG   0.0000
  12 O12          4.3967     2.2411     0.2835 O.3          1    LIG   0.0000
  13 C13          2.4700     2.2411    -1.1496 C.3          1    LIG   0.0000
  14 O14          2.9433     3.4005    -1.8190 O.3          1    LIG   0.0000
  15 C15         -1.8004     0.9979     3.3492 C.2          1    LIG   0.0000
  16 C16         -3.2210     0.9932     3.3731 C.2          1    LIG   0.0000
  17 Br17        -4.1373     0.6929     5.0797 Br           1    LIG   0.0000
  18 H           -3.7757     1.5535     0.1931 H            1    LIG   0.0000
  19 H            2.6433     3.0576     0.7549 H            1    LIG   0.0000
  20 H           -5.7542     1.0270     3.1773 H            1    LIG   0.0000
  21 H           -5.7837     2.0766     1.9266 H            1    LIG   0.0000
  22 H           -5.7833     0.4684     1.6431 H            1    LIG   0.0000
  23 H            0.5000     0.8496     0.1471 H            1    LIG   0.0000
  24 H            2.8033     0.1835     0.5286 H            1    LIG   0.0000
  25 H            2.8033     1.0000     1.9428 H            1    LIG   0.0000
  26 H            4.7300     2.2411     1.2263 H            1    LIG   0.0000
  27 H            2.8033     1.4246    -1.6210 H            1    LIG   0.0000
  28 H            1.4700     2.2411    -1.1496 H            1    LIG   0.0000
  29 H            2.6100     3.4005    -2.7618 H            1    LIG   0.0000
  30 H           -1.2856     0.8494     4.1936 H            1    LIG   0.0000
@<TRIPOS>BOND
   1        1        2 1
   2        2        3 1
   3        3        4 1
   4        4        5 2
   5        4        6 1
   6        6        7 1
   7        7        8 2
   8        7        9 am
   9        9       10 1
  10       10       11 1
  11       11       12 1
  12       11       13 1
  13       13       14 1
  14        6       15 2
  15       15       16 1
  16       16        2 2
  17       16       17 1
  18        3       18 1
  19       11       19 1
  20        1       20 1
  21        1       21 1
  22        1       22 1
  23        9       23 1
  24       10       24 1
  25       10       25 1
  26       12       26 1
  27       13       27 1
  28       13       28 1
  29       14       29 1
  30       15       30 1

@<TRIPOS>MOLECULE

  30   30
SMALL
USER_CHARGES
@<TRIPOS>ATOM
   1 C1          -5.4405     1.2427     2.2340 C.3          1    LIG   0.0000
   2 C2          -3.9205     1.2272     2.2065 C.2          1    LIG   0.0000
   3 N3          -3.2519     0.6286     1.1695 N.pl3        1    LIG   0.0000
   4 C4          -1.8817     0.6010     1.1205 C.2          1    LIG   0.0000
   5 O5          -1.3153     0.0602     0.1844 O.2          1    LIG   0.0000
   6 C6          -1.1352     1.2060     2.1684 C.2          1    LIG   0.0000
   7 C7           0.3150     1.2060     2.1684 C.2          1    LIG   0.0000
   8 O8           0.9150     1.3865     3.1919 O.2          1    LIG   0.0000
   9 N9           1.0000     1.0000     1.0000 N.am         1    LIG   0.0000
  10 C10          2.4700     1.0000     1.0000 C.3          1    LIG   0.0000
  11 C11          2.9767     0.7512    -0.4113 C.3          1    LIG   0.0000
  12 O12          2.5033    -0.5069    -0.8692 O.3          1    LIG   0.0000
  13 C13          2.4700     1.8489    -1.3325 C.3          1    LIG   0.0000
  14 O14          2.9433     1.6165    -2.6509 O.3          1    LIG   0.0000
  15 C15         -1.8004     1.8056     3.2067 C.2          1    LIG   0.0000
  16 C16         -3.2210     1.8174     3.2280 C.2          1    LIG   0.0000
  17 Br17        -4.1373     2.6843     4.7284 Br           1    LIG   0.0000
  18 H           -3.7757     0.2024     0.4319 H            1    LIG   0.0000
  19 H            3.9767     0.7512    -0.4113 H            1    LIG   0.0000
  20 H           -5.7542     1.7174     3.0563 H            1    LIG   0.0000
  21 H           -5.7837     1.7175     1.4236 H            1    LIG   0.0000
  22 H           -5.7833     0.3033     2.2401 H            1    LIG   0.0000
  23 H            0.5000     0.8496     0.1471 H            1    LIG   0.0000
  24 H            2.8033     0.2778     1.6060 H            1    LIG   0.0000
  25 H            2.8033     1.8860     1.3225 H            1    LIG   0.0000
  26 H            2.8367    -1.2291    -0.2632 H            1    LIG   0.0000
  27 H            1.4700     1.8489    -1.3325 H            1    LIG   0.0000
  28 H            2.8033     2.7349    -1.0100 H            1    LIG   0.0000
  29 H            2.6100     2.3387    -3.2569 H            1    LIG   0.0000
  30 H           -1.2856     2.2346     3.9490 H            1    LIG   0.0000
@<TRIPOS>BOND
   1        1        2 1
   2        2        3 1
   3        3        4 1
   4        4        5 2
   5        4        6 1
   6        6        7 1
   7        7        8 2
   8        7        9 am
   9        9       10 1
  10       10       11 1
  11       11       12 1
  12       11       13 1
  13       13       14 1
  14        6       15 2
  15       15       16 1
  16       16        2 2
  17       16       17 1
  18        3       18 1
  19       11       19 1
  20        1       20 1
  21        1       21 1
  22        1       22 1
  23        9       23 1
  24       10       24 1
  25       10       25 1
  26       12       26 1
  27       13       27 1
  28       13       28 1
  29       14       29 1
  30       15       30 1

@<TRIPOS>MOLECULE

  30   30
SMALL
USER_CHARGES
@<TRIPOS>ATOM
   1 C1          -5.4405     1.1920     2.2422 C.3          1    LIG   0.0000
   2 C2          -3.9205     1.1978     2.2112 C.2          1    LIG   0.0000
   3 N3          -3.2519     1.4058     1.0320 N.pl3        1    LIG   0.0000
   4 C4          -1.8817     1.4161     0.9768 C.2          1    LIG   0.0000
   5 O5          -1.3153     1.6036    -0.0879 O.2          1    LIG   0.0000
   6 C6          -1.1352     1.2060     2.1684 C.2          1    LIG   0.0000
   7 C7           0.3150     1.2060     2.1684 C.2          1    LIG   0.0000
   8 O8           0.9150     1.3865     3.1919 O.2          1    LIG   0.0000
   9 N9           1.0000     1.0000     1.0000 N.am         1    LIG   0.0000
  10 C10          2.4700     1.0000     1.0000 C.3          1    LIG   0.0000
  11 C11          2.9767     0.7512    -0.4113 C.3          1    LIG   0.0000
  12 O12          4.3967     0.7512    -0.4113 O.3          1    LIG   0.0000
  13 C13          2.4700    -0.5955    -0.9014 C.3          1    LIG   0.0000
  14 O14          2.9433    -0.8280    -2.2199 O.3          1    LIG   0.0000
  15 C15         -1.8004     0.9979     3.3492 C.2          1    LIG   0.0000
  16 C16         -3.2210     0.9932     3.3731 C.2          1    LIG   0.0000
  17 Br17        -4.1373     0.6929     5.0797 Br           1    LIG   0.0000
  18 H           -3.7757     1.5535     0.1931 H            1    LIG   0.0000
  19 H            2.6433     1.4734    -1.0173 H            1    LIG   0.0000
  20 H           -5.7542     1.0270     3.1773 H            1    LIG   0.0000
  21 H           -5.7837     2.0766     1.9266 H            1    LIG   0.0000
  22 H           -5.7833     0.4684     1.6431 H            1    LIG   0.0000
  23 H            0.5000     0.8496     0.1471 H            1    LIG   0.0000
  24 H            2.8033     0.2778     1.6060 H            1    LIG   0.0000
  25 H            2.8033     1.8860     1.3225 H            1    LIG   0.0000
  26 H            4.7300     1.6371    -0.0888 H            1    LIG   0.0000
  27 H            2.8033    -1.3177    -0.2954 H            1    LIG   0.0000
  28 H            1.4700    -0.5955    -0.9014 H            1    LIG   0.0000
  29 H            2.6100    -1.7139    -2.5423 H            1    LIG   0.0000
  30 H           -1.2856     0.8494     4.1936 H            1    LIG   0.0000
@<TRIPOS>BOND
   1        1        2 1
   2        2        3 1
   3        3        4 1
   4        4        5 2
   5        4        6 1
   6        6        7 1
   7        7        8 2
   8        7        9 am
   9        9       10 1
  10       10       11 1
  11       11       12 1
  12       11       13 1
  13       13       14 1
  14        6       15 2
  15       15       16 1
  16       16        2 2
  17       16       17 1
  18        3       18 1
  19       11       19 1
  20        1       20 1
  21        1       21 1
  22        1       22 1
  23        9       23 1
  24       10       24 1
  25       10       25 1
  26       12       26 1
  27       13       27 1
  28       13       28 1
  29       14       29 1
  30       15       30 1

@<TRIPOS>MOLECULE

  30   30
SMALL
USER_CHARGES
@<TRIPOS>ATOM
   1 C1          -4.8547    -1.1828     3.0044 C.3          1    LIG   0.0000
   2 C2          -3.4905    -0.5532     2.7720 C.2          1    LIG   0.0000
   3 N3          -3.0013    -0.4091     1.4990 N.pl3        1    LIG   0.0000
   4 C4          -1.7743     0.1556     1.2621 C.2          1    LIG   0.0000
   5 O5          -1.3658     0.2699     0.1176 O.2          1    LIG   0.0000
   6 C6          -0.9895     0.6022     2.3603 C.2          1    LIG   0.0000
   7 C7           0.3150     1.2060     2.1684 C.2          1    LIG   0.0000
   8 O8           0.7944     1.8861     3.0331 O.2          1    LIG   0.0000
   9 N9           1.0000     1.0000     1.0000 N.am         1    LIG   0.0000
  10 C10          2.4700     1.0000     1.0000 C.3          1    LIG   0.0000
  11 C11          2.9767     2.2988     0.3944 C.3          1    LIG   0.0000
  12 O12          2.5033     2.4155    -0.9393 O.3          1    LIG   0.0000
  13 C13          2.4700     3.4727     1.2163 C.3          1    LIG   0.0000
  14 O14          2.9433     4.6861     0.6505 O.3          1    LIG   0.0000
  15 C15         -1.4757     0.4599     3.6344 C.2          1    LIG   0.0000
  16 C16         -2.7511    -0.1293     3.8465 C.2          1    LIG   0.0000
  17 Br17        -3.4134    -0.3158     5.6820 Br           1    LIG   0.0000
  18 H           -3.5520    -0.7230     0.7256 H            1    LIG   0.0000
  19 H            3.9767     2.2988     0.3944 H            1    LIG   0.0000
  20 H           -5.0480    -1.2069     3.9852 H            1    LIG   0.0000
  21 H           -5.5553    -0.6412     2.5398 H            1    LIG   0.0000
  22 H           -4.8581    -2.1144     2.6410 H            1    LIG   0.0000
  23 H            0.5000     0.8496     0.1471 H            1    LIG   0.0000
  24 H            2.8033     0.2277     0.4592 H            1    LIG   0.0000
  25 H            2.8033     0.9178     1.9392 H            1    LIG   0.0000
  26 H            2.8367     1.6432    -1.4801 H            1    LIG   0.0000
  27 H            1.4700     3.4727     1.2163 H            1    LIG   0.0000
  28 H            2.8033     3.3905     2.1556 H            1    LIG   0.0000
  29 H            2.6100     5.4584     1.1913 H            1    LIG   0.0000
  30 H           -0.9326     0.7707     4.4144 H            1    LIG   0.0000
@<TRIPOS>BOND
   1        1        2 1
   2        2        3 1
   3        3        4 1
   4        4        5 2
   5        4        6 1
   6        6        7 1
   7        7        8 2
   8        7        9 am
   9        9       10 1
  10       10       11 1
  11       11       12 1
  12       11       13 1
  13       13       14 1
  14        6       15 2
  15       15       16 1
  16       16        2 2
  17       16       17 1
  18        3       18 1
  19       11       19 1
  20        1       20 1
  21        1       21 1
  22        1       22 1
  23        9       23 1
  24       10       24 1
  25       10       25 1
  26       12       26 1
  27       13       27 1
  28       13       28 1
  29       14       29 1
  30       15       30 1

