@<TRIPOS>MOLECULE
*****
 30 30 0 0 0
SMALL
USER_CHARGES

@<TRIPOS>ATOM
      1 C1         -5.4405    1.2427    2.2340 C.3     1  LIG1        0.0000
      2 C2         -3.9205    1.2272    2.2065 C.2     1  LIG1        0.0000
      3 N3         -3.2519    0.6286    1.1695 N.am    1  LIG1        0.0000
      4 C4         -1.8817    0.6010    1.1205 C.2     1  LIG1        0.0000
      5 O5         -1.3153    0.0602    0.1844 O.2     1  LIG1        0.0000
      6 C6         -1.1352    1.2060    2.1684 C.2     1  LIG1        0.0000
      7 C7          0.3150    1.2060    2.1684 C.2     1  LIG1        0.0000
      8 O8          0.9150    1.3865    3.1919 O.2     1  LIG1        0.0000
      9 N9          1.0000    1.0000    1.0000 N.am    1  LIG1        0.0000
     10 C10         2.4700    1.0000    1.0000 C.3     1  LIG1        0.0000
     11 C11         2.9767   -0.3466    1.4901 C.3     1  LIG1        0.0000
     12 O12         2.5033   -0.5791    2.8086 O.3     1  LIG1        0.0000
     13 C13         2.4700   -1.4444    0.5690 C.3     1  LIG1        0.0000
     14 O14         2.9433   -2.7025    1.0269 O.3     1  LIG1        0.0000
     15 C15        -1.8004    1.8056    3.2067 C.2     1  LIG1        0.0000
     16 C16        -3.2210    1.8174    3.2280 C.2     1  LIG1        0.0000
     17 Br17       -4.1373    2.6843    4.7284 Br      1  LIG1        0.0000
     18 H          -3.7757    0.2024    0.4319 H       1  LIG1        0.0000
     19 H           3.9767   -0.3466    1.4901 H       1  LIG1        0.0000
     20 H          -5.7542    1.7174    3.0563 H       1  LIG1        0.0000
     21 H          -5.7837    1.7175    1.4236 H       1  LIG1        0.0000
     22 H          -5.7833    0.3033    2.2401 H       1  LIG1        0.0000
     23 H           0.5000    0.8496    0.1471 H       1  LIG1        0.0000
     24 H           2.8033    1.7222    1.6060 H       1  LIG1        0.0000
     25 H           2.8033    1.1637    0.0715 H       1  LIG1        0.0000
     26 H           2.8367    0.1431    3.4146 H       1  LIG1        0.0000
     27 H           1.4700   -1.4444    0.5690 H       1  LIG1        0.0000
     28 H           2.8033   -1.2807   -0.3595 H       1  LIG1        0.0000
     29 H           2.6100   -3.4247    0.4208 H       1  LIG1        0.0000
     30 H          -1.2856    2.2346    3.9490 H       1  LIG1        0.0000
@<TRIPOS>BOND
     1     1     2    1
     2     2     3    1
     3     3     4   am
     4     4     5    2
     5     4     6    1
     6     6     7    1
     7     7     8    2
     8     7     9   am
     9     9    10    1
    10    10    11    1
    11    11    12    1
    12    11    13    1
    13    13    14    1
    14     6    15    2
    15    15    16    1
    16    16     2    2
    17    16    17    1
    18     3    18    1
    19    11    19    1
    20     1    20    1
    21     1    21    1
    22     1    22    1
    23     9    23    1
    24    10    24    1
    25    10    25    1
    26    12    26    1
    27    13    27    1
    28    13    28    1
    29    14    29    1
    30    15    30    1
