@<TRIPOS>MOLECULE
*****
 30 30 0 0 0
SMALL
USER_CHARGES

@<TRIPOS>ATOM
      1 C1         -5.4405    1.1920    2.2422 C.3     1  LIG1        0.0000
      2 C2         -3.9205    1.1978    2.2112 C.2     1  LIG1        0.0000
      3 N3         -3.2519    1.4058    1.0320 N.am    1  LIG1        0.0000
      4 C4         -1.8817    1.4161    0.9768 C.2     1  LIG1        0.0000
      5 O5         -1.3153    1.6036   -0.0879 O.2     1  LIG1        0.0000
      6 C6         -1.1352    1.2060    2.1684 C.2     1  LIG1        0.0000
      7 C7          0.3150    1.2060    2.1684 C.2     1  LIG1        0.0000
      8 O8          0.9150    1.3865    3.1919 O.2     1  LIG1        0.0000
      9 N9          1.0000    1.0000    1.0000 N.am    1  LIG1        0.0000
     10 C10         2.4700    1.0000    1.0000 C.3     1  LIG1        0.0000
     11 C11         2.9767    2.2411    0.2835 C.3     1  LIG1        0.0000
     12 O12         2.5033    3.4005    0.9529 O.3     1  LIG1        0.0000
     13 C13         4.4967    2.2411    0.2835 C.3     1  LIG1        0.0000
     14 O14         4.9700    3.4005   -0.3859 O.3     1  LIG1        0.0000
     15 C15        -1.8004    0.9979    3.3492 C.2     1  LIG1        0.0000
     16 C16        -3.2210    0.9932    3.3731 C.2     1  LIG1        0.0000
     17 Br17       -4.1373    0.6929    5.0797 Br      1  LIG1        0.0000
     18 H          -3.7757    1.5535    0.1931 H       1  LIG1        0.0000
     19 H           2.6433    2.2411   -0.6593 H       1  LIG1        0.0000
     20 H          -5.7542    1.0270    3.1773 H       1  LIG1        0.0000
     21 H          -5.7837    2.0766    1.9266 H       1  LIG1        0.0000
     22 H          -5.7833    0.4684    1.6431 H       1  LIG1        0.0000
     23 H           0.5000    0.8496    0.1471 H       1  LIG1        0.0000
     24 H           2.8033    0.1835    0.5286 H       1  LIG1        0.0000
     25 H           2.8033    1.0000    1.9428 H       1  LIG1        0.0000
     26 H           1.5033    3.4005    0.9529 H       1  LIG1        0.0000
     27 H           4.8300    2.2411    1.2263 H       1  LIG1        0.0000
     28 H           4.8300    1.4246   -0.1879 H       1  LIG1        0.0000
     29 H           5.9700    3.4005   -0.3859 H       1  LIG1        0.0000
     30 H          -1.2856    0.8494    4.1936 H       1  LIG1        0.0000
@<TRIPOS>BOND
     1     1     2    1
     2     2     3    1
     3     3     4   am
     4     4     5    2
     5     4     6    1
     6     6     7    1
     7     7     8    2
     8     7     9   am
     9     9    10    1
    10    10    11    1
    11    11    12    1
    12    11    13    1
    13    13    14    1
    14     6    15    2
    15    15    16    1
    16    16     2    2
    17    16    17    1
    18     3    18    1
    19    11    19    1
    20     1    20    1
    21     1    21    1
    22     1    22    1
    23     9    23    1
    24    10    24    1
    25    10    25    1
    26    12    26    1
    27    13    27    1
    28    13    28    1
    29    14    29    1
    30    15    30    1
