@<TRIPOS>MOLECULE
*****
 30 30 0 0 0
SMALL
USER_CHARGES

@<TRIPOS>ATOM
      1 C1         -4.8547   -1.1828    3.0044 C.3     1  LIG1        0.0000
      2 C2         -3.4905   -0.5532    2.7720 C.2     1  LIG1        0.0000
      3 N3         -3.0013   -0.4091    1.4990 N.am    1  LIG1        0.0000
      4 C4         -1.7743    0.1556    1.2621 C.2     1  LIG1        0.0000
      5 O5         -1.3658    0.2699    0.1176 O.2     1  LIG1        0.0000
      6 C6         -0.9895    0.6022    2.3603 C.2     1  LIG1        0.0000
      7 C7          0.3150    1.2060    2.1684 C.2     1  LIG1        0.0000
      8 O8          0.7944    1.8861    3.0331 O.2     1  LIG1        0.0000
      9 N9          1.0000    1.0000    1.0000 N.am    1  LIG1        0.0000
     10 C10         2.4700    1.0000    1.0000 C.3     1  LIG1        0.0000
     11 C11         2.9767    2.2988    0.3944 C.3     1  LIG1        0.0000
     12 O12         2.5033    2.4155   -0.9393 O.3     1  LIG1        0.0000
     13 C13         2.4700    3.4727    1.2163 C.3     1  LIG1        0.0000
     14 O14         2.9433    4.6861    0.6505 O.3     1  LIG1        0.0000
     15 C15        -1.4757    0.4599    3.6344 C.2     1  LIG1        0.0000
     16 C16        -2.7511   -0.1293    3.8465 C.2     1  LIG1        0.0000
     17 Br17       -3.4134   -0.3158    5.6820 Br      1  LIG1        0.0000
     18 H          -3.5520   -0.7230    0.7256 H       1  LIG1        0.0000
     19 H           3.9767    2.2988    0.3944 H       1  LIG1        0.0000
     20 H          -5.0480   -1.2069    3.9852 H       1  LIG1        0.0000
     21 H          -5.5553   -0.6412    2.5398 H       1  LIG1        0.0000
     22 H          -4.8581   -2.1144    2.6410 H       1  LIG1        0.0000
     23 H           0.5000    0.8496    0.1471 H       1  LIG1        0.0000
     24 H           2.8033    0.2277    0.4592 H       1  LIG1        0.0000
     25 H           2.8033    0.9178    1.9392 H       1  LIG1        0.0000
     26 H           2.8367    1.6432   -1.4801 H       1  LIG1        0.0000
     27 H           1.4700    3.4727    1.2163 H       1  LIG1        0.0000
     28 H           2.8033    3.3905    2.1556 H       1  LIG1        0.0000
     29 H           2.6100    5.4584    1.1913 H       1  LIG1        0.0000
     30 H          -0.9326    0.7707    4.4144 H       1  LIG1        0.0000
@<TRIPOS>BOND
     1     1     2    1
     2     2     3    1
     3     3     4   am
     4     4     5    2
     5     4     6    1
     6     6     7    1
     7     7     8    2
     8     7     9   am
     9     9    10    1
    10    10    11    1
    11    11    12    1
    12    11    13    1
    13    13    14    1
    14     6    15    2
    15    15    16    1
    16    16     2    2
    17    16    17    1
    18     3    18    1
    19    11    19    1
    20     1    20    1
    21     1    21    1
    22     1    22    1
    23     9    23    1
    24    10    24    1
    25    10    25    1
    26    12    26    1
    27    13    27    1
    28    13    28    1
    29    14    29    1
    30    15    30    1
