@<TRIPOS>MOLECULE
*****
 30 30 0 0 0
SMALL
USER_CHARGES

@<TRIPOS>ATOM
      1 C1         -4.8670    3.7115    2.1391 C.3     1  LIG1        0.0000
      2 C2         -3.4977    3.0508    2.1352 C.2     1  LIG1        0.0000
      3 N3         -2.8268    2.8529    0.9556 N.am    1  LIG1        0.0000
      4 C4         -1.5908    2.2598    0.9245 C.2     1  LIG1        0.0000
      5 O5         -1.0187    2.0970   -0.1413 O.2     1  LIG1        0.0000
      6 C6         -0.9895    1.8391    2.1422 C.2     1  LIG1        0.0000
      7 C7          0.3150    1.2060    2.1684 C.2     1  LIG1        0.0000
      8 O8          0.7944    0.8627    3.2135 O.2     1  LIG1        0.0000
      9 N9          1.0000    1.0000    1.0000 N.am    1  LIG1        0.0000
     10 C10         2.4700    1.0000    1.0000 C.3     1  LIG1        0.0000
     11 C11         2.9767    2.2411    0.2835 C.3     1  LIG1        0.0000
     12 O12         2.5033    2.2411   -1.0553 O.3     1  LIG1        0.0000
     13 C13         2.4700    3.4821    1.0000 C.3     1  LIG1        0.0000
     14 O14         2.9433    4.6416    0.3306 O.3     1  LIG1        0.0000
     15 C15        -1.6574    2.0355    3.3235 C.2     1  LIG1        0.0000
     16 C16        -2.9368    2.6533    3.3220 C.2     1  LIG1        0.0000
     17 Br17       -3.8613    2.9180    5.0301 Br      1  LIG1        0.0000
     18 H          -3.2487    3.1480    0.0983 H       1  LIG1        0.0000
     19 H           3.9767    2.2411    0.2835 H       1  LIG1        0.0000
     20 H          -5.2042    3.7740    3.0785 H       1  LIG1        0.0000
     21 H          -4.7952    4.6295    1.7490 H       1  LIG1        0.0000
     22 H          -5.5020    3.1657    1.5925 H       1  LIG1        0.0000
     23 H           0.5000    0.8496    0.1471 H       1  LIG1        0.0000
     24 H           2.8033    0.1835    0.5286 H       1  LIG1        0.0000
     25 H           2.8033    1.0000    1.9428 H       1  LIG1        0.0000
     26 H           2.8367    1.4246   -1.5267 H       1  LIG1        0.0000
     27 H           1.4700    3.4821    1.0000 H       1  LIG1        0.0000
     28 H           2.8033    3.4821    1.9428 H       1  LIG1        0.0000
     29 H           2.6100    5.4581    0.8020 H       1  LIG1        0.0000
     30 H          -1.2439    1.7440    4.1861 H       1  LIG1        0.0000
@<TRIPOS>BOND
     1     1     2    1
     2     2     3    1
     3     3     4   am
     4     4     5    2
     5     4     6    1
     6     6     7    1
     7     7     8    2
     8     7     9   am
     9     9    10    1
    10    10    11    1
    11    11    12    1
    12    11    13    1
    13    13    14    1
    14     6    15    2
    15    15    16    1
    16    16     2    2
    17    16    17    1
    18     3    18    1
    19    11    19    1
    20     1    20    1
    21     1    21    1
    22     1    22    1
    23     9    23    1
    24    10    24    1
    25    10    25    1
    26    12    26    1
    27    13    27    1
    28    13    28    1
    29    14    29    1
    30    15    30    1
