@<TRIPOS>MOLECULE

  24   25
SMALL
USER_CHARGES
@<TRIPOS>ATOM
   1 C1           0.7484    -2.6443    -0.0769 C.3          1    LIG   0.0000
   2 O2           1.7845    -1.6736    -0.0523 O.3          1    LIG   0.0000
   3 C3           1.3755    -0.3877    -0.0258 C.2          1    LIG   0.0000
   4 C4           0.0127     0.0124    -0.0252 C.2          1    LIG   0.0000
   5 C5          -0.2292     1.3546    -0.0008 C.2          1    LIG   0.0000
   6 S6           1.3136     2.0803     0.0268 S.3          1    LIG   0.0000
   7 C7           2.2512     0.6579    -0.0001 C.2          1    LIG   0.0000
   8 C8           3.6999     0.5941     0.0026 C.2          1    LIG   0.0000
   9 N9           4.2768    -0.5146    -0.0202 N.2          1    LIG   0.0000
  10 N10          5.6443    -0.4315    -0.0144 N.pl3        1    LIG   0.0000
  11 C11          6.4164    -1.5986    -0.0380 C.2          1    LIG   0.0000
  12 N12          7.7272    -1.6509    -0.0354 N.2          1    LIG   0.0000
  13 N13          8.0784    -2.9176    -0.0629 N.2          1    LIG   0.0000
  14 C14          7.0197    -3.6921    -0.0815 C.2          1    LIG   0.0000
  15 N15          5.9326    -2.8714    -0.0641 N.pl3        1    LIG   0.0000
  16 H            4.9717    -3.1481    -0.0695 H            1    LIG   0.0000
  17 H            1.1498    -3.5600    -0.0955 H            1    LIG   0.0000
  18 H            0.1801    -2.5460     0.7400 H            1    LIG   0.0000
  19 H            0.1855    -2.5105    -0.8926 H            1    LIG   0.0000
  20 H           -0.7313    -0.6556    -0.0418 H            1    LIG   0.0000
  21 H           -1.1178     1.8132     0.0006 H            1    LIG   0.0000
  22 H            4.2375     1.4371     0.0228 H            1    LIG   0.0000
  23 H            6.0907     0.4630     0.0066 H            1    LIG   0.0000
  24 H            7.0122    -4.6918    -0.1042 H            1    LIG   0.0000
@<TRIPOS>BOND
   1        1        2 1
   2        2        3 1
   3        3        4 1
   4        4        5 2
   5        5        6 1
   6        6        7 1
   7        7        3 2
   8        7        8 1
   9        8        9 2
  10        9       10 1
  11       10       11 1
  12       11       12 2
  13       12       13 1
  14       13       14 2
  15       14       15 1
  16       15       11 1
  17       15       16 1
  18        1       17 1
  19        1       18 1
  20        1       19 1
  21        4       20 1
  22        5       21 1
  23        8       22 1
  24       10       23 1
  25       14       24 1

@<TRIPOS>MOLECULE

  24   25
SMALL
USER_CHARGES
@<TRIPOS>ATOM
   1 C1           0.7484    -2.6443    -0.0769 C.3          1    LIG   0.0000
   2 O2           1.7845    -1.6736    -0.0523 O.3          1    LIG   0.0000
   3 C3           1.3755    -0.3877    -0.0258 C.2          1    LIG   0.0000
   4 C4           0.0127     0.0124    -0.0252 C.2          1    LIG   0.0000
   5 C5          -0.2292     1.3546    -0.0008 C.2          1    LIG   0.0000
   6 S6           1.3136     2.0803     0.0268 S.3          1    LIG   0.0000
   7 C7           2.2512     0.6579    -0.0001 C.2          1    LIG   0.0000
   8 C8           3.6999     0.5941     0.0026 C.2          1    LIG   0.0000
   9 N9           4.2768    -0.5146    -0.0202 N.2          1    LIG   0.0000
  10 N10          5.6443    -0.4315    -0.0144 N.pl3        1    LIG   0.0000
  11 C11          6.4164    -1.5986    -0.0380 C.2          1    LIG   0.0000
  12 N12          5.9515    -2.8250    -0.0665 N.2          1    LIG   0.0000
  13 N13          6.9801    -3.6439    -0.0813 N.2          1    LIG   0.0000
  14 C14          8.1073    -2.9729    -0.0647 C.2          1    LIG   0.0000
  15 N15          7.7772    -1.6515    -0.0388 N.pl3        1    LIG   0.0000
  16 H            8.4079    -0.8757    -0.0233 H            1    LIG   0.0000
  17 H            1.1498    -3.5600    -0.0955 H            1    LIG   0.0000
  18 H            0.1801    -2.5460     0.7400 H            1    LIG   0.0000
  19 H            0.1855    -2.5105    -0.8926 H            1    LIG   0.0000
  20 H           -0.7313    -0.6556    -0.0418 H            1    LIG   0.0000
  21 H           -1.1178     1.8132     0.0006 H            1    LIG   0.0000
  22 H            4.2375     1.4371     0.0228 H            1    LIG   0.0000
  23 H            6.0907     0.4630     0.0066 H            1    LIG   0.0000
  24 H            9.0305    -3.3573    -0.0700 H            1    LIG   0.0000
@<TRIPOS>BOND
   1        1        2 1
   2        2        3 1
   3        3        4 1
   4        4        5 2
   5        5        6 1
   6        6        7 1
   7        7        3 2
   8        7        8 1
   9        8        9 2
  10        9       10 1
  11       10       11 1
  12       11       12 2
  13       12       13 1
  14       13       14 2
  15       14       15 1
  16       15       11 1
  17       15       16 1
  18        1       17 1
  19        1       18 1
  20        1       19 1
  21        4       20 1
  22        5       21 1
  23        8       22 1
  24       10       23 1
  25       14       24 1

@<TRIPOS>MOLECULE

  24   25
SMALL
USER_CHARGES
@<TRIPOS>ATOM
   1 C1           0.7484    -2.6443    -0.0769 C.3          1    LIG   0.0000
   2 O2           1.7845    -1.6736    -0.0523 O.3          1    LIG   0.0000
   3 C3           1.3755    -0.3877    -0.0258 C.2          1    LIG   0.0000
   4 C4           0.0127     0.0124    -0.0252 C.2          1    LIG   0.0000
   5 C5          -0.2292     1.3546    -0.0008 C.2          1    LIG   0.0000
   6 S6           1.3136     2.0803     0.0268 S.3          1    LIG   0.0000
   7 C7           2.2512     0.6579    -0.0001 C.2          1    LIG   0.0000
   8 C8           3.6999     0.5941     0.0026 C.2          1    LIG   0.0000
   9 N9           4.3508     1.1279    -0.9214 N.2          1    LIG   0.0000
  10 N10          5.7085     0.9938    -0.7964 N.pl3        1    LIG   0.0000
  11 C11          6.5581     1.5448    -1.7626 C.2          1    LIG   0.0000
  12 N12          7.8685     1.4843    -1.7555 N.2          1    LIG   0.0000
  13 N13          8.3052     2.1151    -2.8232 N.2          1    LIG   0.0000
  14 C14          7.3026     2.5843    -3.5272 C.2          1    LIG   0.0000
  15 N15          6.1626     2.2311    -2.8704 N.pl3        1    LIG   0.0000
  16 H            5.2233     2.4350    -3.1464 H            1    LIG   0.0000
  17 H            1.1498    -3.5600    -0.0955 H            1    LIG   0.0000
  18 H            0.1801    -2.5460     0.7400 H            1    LIG   0.0000
  19 H            0.1855    -2.5105    -0.8926 H            1    LIG   0.0000
  20 H           -0.7313    -0.6556    -0.0418 H            1    LIG   0.0000
  21 H           -1.1178     1.8132     0.0006 H            1    LIG   0.0000
  22 H            4.1783     0.1230     0.7438 H            1    LIG   0.0000
  23 H            6.0925     0.5022    -0.0148 H            1    LIG   0.0000
  24 H            7.3634     3.1013    -4.3810 H            1    LIG   0.0000
@<TRIPOS>BOND
   1        1        2 1
   2        2        3 1
   3        3        4 1
   4        4        5 2
   5        5        6 1
   6        6        7 1
   7        7        3 2
   8        7        8 1
   9        8        9 2
  10        9       10 1
  11       10       11 1
  12       11       12 2
  13       12       13 1
  14       13       14 2
  15       14       15 1
  16       15       11 1
  17       15       16 1
  18        1       17 1
  19        1       18 1
  20        1       19 1
  21        4       20 1
  22        5       21 1
  23        8       22 1
  24       10       23 1
  25       14       24 1

@<TRIPOS>MOLECULE

  24   25
SMALL
USER_CHARGES
@<TRIPOS>ATOM
   1 C1           0.7484    -2.6443    -0.0769 C.3          1    LIG   0.0000
   2 O2           1.7845    -1.6736    -0.0523 O.3          1    LIG   0.0000
   3 C3           1.3755    -0.3877    -0.0258 C.2          1    LIG   0.0000
   4 C4           0.0127     0.0124    -0.0252 C.2          1    LIG   0.0000
   5 C5          -0.2292     1.3546    -0.0008 C.2          1    LIG   0.0000
   6 S6           1.3136     2.0803     0.0268 S.3          1    LIG   0.0000
   7 C7           2.2512     0.6579    -0.0001 C.2          1    LIG   0.0000
   8 C8           3.6999     0.5941     0.0026 C.2          1    LIG   0.0000
   9 N9           4.3508     1.1279    -0.9214 N.2          1    LIG   0.0000
  10 N10          5.7085     0.9938    -0.7964 N.pl3        1    LIG   0.0000
  11 C11          6.5581     1.5448    -1.7626 C.2          1    LIG   0.0000
  12 N12          6.1784     2.2089    -2.8283 N.2          1    LIG   0.0000
  13 N13          7.2597     2.5626    -3.4872 N.2          1    LIG   0.0000
  14 C14          8.3378     2.1423    -2.8690 C.2          1    LIG   0.0000
  15 N15          7.9185     1.4842    -1.7524 N.pl3        1    LIG   0.0000
  16 H            8.4944     1.0447    -1.0631 H            1    LIG   0.0000
  17 H            1.1498    -3.5600    -0.0955 H            1    LIG   0.0000
  18 H            0.1801    -2.5460     0.7400 H            1    LIG   0.0000
  19 H            0.1855    -2.5105    -0.8926 H            1    LIG   0.0000
  20 H           -0.7313    -0.6556    -0.0418 H            1    LIG   0.0000
  21 H           -1.1178     1.8132     0.0006 H            1    LIG   0.0000
  22 H            4.1783     0.1230     0.7438 H            1    LIG   0.0000
  23 H            6.0925     0.5022    -0.0148 H            1    LIG   0.0000
  24 H            9.2844     2.2787    -3.1610 H            1    LIG   0.0000
@<TRIPOS>BOND
   1        1        2 1
   2        2        3 1
   3        3        4 1
   4        4        5 2
   5        5        6 1
   6        6        7 1
   7        7        3 2
   8        7        8 1
   9        8        9 2
  10        9       10 1
  11       10       11 1
  12       11       12 2
  13       12       13 1
  14       13       14 2
  15       14       15 1
  16       15       11 1
  17       15       16 1
  18        1       17 1
  19        1       18 1
  20        1       19 1
  21        4       20 1
  22        5       21 1
  23        8       22 1
  24       10       23 1
  25       14       24 1

@<TRIPOS>MOLECULE

  24   25
SMALL
USER_CHARGES
@<TRIPOS>ATOM
   1 C1           0.7484    -2.6443    -0.0769 C.3          1    LIG   0.0000
   2 O2           1.7845    -1.6736    -0.0523 O.3          1    LIG   0.0000
   3 C3           1.3755    -0.3877    -0.0258 C.2          1    LIG   0.0000
   4 C4           0.0127     0.0124    -0.0252 C.2          1    LIG   0.0000
   5 C5          -0.2292     1.3546    -0.0008 C.2          1    LIG   0.0000
   6 S6           1.3136     2.0803     0.0268 S.3          1    LIG   0.0000
   7 C7           2.2512     0.6579    -0.0001 C.2          1    LIG   0.0000
   8 C8           3.6999     0.5941     0.0026 C.2          1    LIG   0.0000
   9 N9           4.3508     1.1279    -0.9214 N.2          1    LIG   0.0000
  10 N10          3.5734     1.7381    -1.8702 N.pl3        1    LIG   0.0000
  11 C11          4.1734     2.3761    -2.9620 C.2          1    LIG   0.0000
  12 N12          3.5412     2.9928    -3.9319 N.2          1    LIG   0.0000
  13 N13          4.4437     3.4606    -4.7657 N.2          1    LIG   0.0000
  14 C14          5.6533     3.1611    -4.3556 C.2          1    LIG   0.0000
  15 N15          5.5125     2.4637    -3.1939 N.pl3        1    LIG   0.0000
  16 H            6.2456     2.0907    -2.6252 H            1    LIG   0.0000
  17 H            1.1498    -3.5600    -0.0955 H            1    LIG   0.0000
  18 H            0.1801    -2.5460     0.7400 H            1    LIG   0.0000
  19 H            0.1855    -2.5105    -0.8926 H            1    LIG   0.0000
  20 H           -0.7313    -0.6556    -0.0418 H            1    LIG   0.0000
  21 H           -1.1178     1.8132     0.0006 H            1    LIG   0.0000
  22 H            4.1783     0.1230     0.7438 H            1    LIG   0.0000
  23 H            2.5773     1.7276    -1.7828 H            1    LIG   0.0000
  24 H            6.5127     3.3989    -4.8082 H            1    LIG   0.0000
@<TRIPOS>BOND
   1        1        2 1
   2        2        3 1
   3        3        4 1
   4        4        5 2
   5        5        6 1
   6        6        7 1
   7        7        3 2
   8        7        8 1
   9        8        9 2
  10        9       10 1
  11       10       11 1
  12       11       12 2
  13       12       13 1
  14       13       14 2
  15       14       15 1
  16       15       11 1
  17       15       16 1
  18        1       17 1
  19        1       18 1
  20        1       19 1
  21        4       20 1
  22        5       21 1
  23        8       22 1
  24       10       23 1
  25       14       24 1

@<TRIPOS>MOLECULE

  24   25
SMALL
USER_CHARGES
@<TRIPOS>ATOM
   1 C1           0.7484    -2.6443    -0.0769 C.3          1    LIG   0.0000
   2 O2           1.7845    -1.6736    -0.0523 O.3          1    LIG   0.0000
   3 C3           1.3755    -0.3877    -0.0258 C.2          1    LIG   0.0000
   4 C4           0.0127     0.0124    -0.0252 C.2          1    LIG   0.0000
   5 C5          -0.2292     1.3546    -0.0008 C.2          1    LIG   0.0000
   6 S6           1.3136     2.0803     0.0268 S.3          1    LIG   0.0000
   7 C7           2.2512     0.6579    -0.0001 C.2          1    LIG   0.0000
   8 C8           3.6999     0.5941     0.0026 C.2          1    LIG   0.0000
   9 N9           4.3508     1.1279    -0.9214 N.2          1    LIG   0.0000
  10 N10          3.5734     1.7381    -1.8702 N.pl3        1    LIG   0.0000
  11 C11          4.1734     2.3761    -2.9620 C.2          1    LIG   0.0000
  12 N12          5.4630     2.4583    -3.1881 N.2          1    LIG   0.0000
  13 N13          5.6326     3.1306    -4.3052 N.2          1    LIG   0.0000
  14 C14          4.4762     3.4867    -4.8122 C.2          1    LIG   0.0000
  15 N15          3.5158     3.0131    -3.9701 N.pl3        1    LIG   0.0000
  16 H            2.5261     3.1132    -4.0719 H            1    LIG   0.0000
  17 H            1.1498    -3.5600    -0.0955 H            1    LIG   0.0000
  18 H            0.1801    -2.5460     0.7400 H            1    LIG   0.0000
  19 H            0.1855    -2.5105    -0.8926 H            1    LIG   0.0000
  20 H           -0.7313    -0.6556    -0.0418 H            1    LIG   0.0000
  21 H           -1.1178     1.8132     0.0006 H            1    LIG   0.0000
  22 H            4.1783     0.1230     0.7438 H            1    LIG   0.0000
  23 H            2.5773     1.7276    -1.7828 H            1    LIG   0.0000
  24 H            4.3283     4.0055    -5.6542 H            1    LIG   0.0000
@<TRIPOS>BOND
   1        1        2 1
   2        2        3 1
   3        3        4 1
   4        4        5 2
   5        5        6 1
   6        6        7 1
   7        7        3 2
   8        7        8 1
   9        8        9 2
  10        9       10 1
  11       10       11 1
  12       11       12 2
  13       12       13 1
  14       13       14 2
  15       14       15 1
  16       15       11 1
  17       15       16 1
  18        1       17 1
  19        1       18 1
  20        1       19 1
  21        4       20 1
  22        5       21 1
  23        8       22 1
  24       10       23 1
  25       14       24 1

@<TRIPOS>MOLECULE

  24   25
SMALL
USER_CHARGES
@<TRIPOS>ATOM
   1 C1           0.7484    -2.6443    -0.0769 C.3          1    LIG   0.0000
   2 O2           1.7845    -1.6736    -0.0523 O.3          1    LIG   0.0000
   3 C3           1.3755    -0.3877    -0.0258 C.2          1    LIG   0.0000
   4 C4           0.0127     0.0124    -0.0252 C.2          1    LIG   0.0000
   5 C5          -0.2292     1.3546    -0.0008 C.2          1    LIG   0.0000
   6 S6           1.3136     2.0803     0.0268 S.3          1    LIG   0.0000
   7 C7           2.2512     0.6579    -0.0001 C.2          1    LIG   0.0000
   8 C8           3.6999     0.5941     0.0026 C.2          1    LIG   0.0000
   9 N9           4.3454     1.0865     0.9531 N.2          1    LIG   0.0000
  10 N10          5.7038     0.9578     0.8301 N.pl3        1    LIG   0.0000
  11 C11          6.5477     1.4654     1.8247 C.2          1    LIG   0.0000
  12 N12          7.8582     1.4051     1.8224 N.2          1    LIG   0.0000
  13 N13          8.2887     1.9873     2.9198 N.2          1    LIG   0.0000
  14 C14          7.2820     2.4277     3.6366 C.2          1    LIG   0.0000
  15 N15          6.1461     2.1082     2.9561 N.pl3        1    LIG   0.0000
  16 H            5.2055     2.3060     3.2320 H            1    LIG   0.0000
  17 H            1.1498    -3.5600    -0.0955 H            1    LIG   0.0000
  18 H            0.1801    -2.5460     0.7400 H            1    LIG   0.0000
  19 H            0.1855    -2.5105    -0.8926 H            1    LIG   0.0000
  20 H           -0.7313    -0.6556    -0.0418 H            1    LIG   0.0000
  21 H           -1.1178     1.8132     0.0006 H            1    LIG   0.0000
  22 H            4.1826     0.1562    -0.7558 H            1    LIG   0.0000
  23 H            6.0924     0.5012     0.0298 H            1    LIG   0.0000
  24 H            7.3378     2.9055     4.5133 H            1    LIG   0.0000
@<TRIPOS>BOND
   1        1        2 1
   2        2        3 1
   3        3        4 1
   4        4        5 2
   5        5        6 1
   6        6        7 1
   7        7        3 2
   8        7        8 1
   9        8        9 2
  10        9       10 1
  11       10       11 1
  12       11       12 2
  13       12       13 1
  14       13       14 2
  15       14       15 1
  16       15       11 1
  17       15       16 1
  18        1       17 1
  19        1       18 1
  20        1       19 1
  21        4       20 1
  22        5       21 1
  23        8       22 1
  24       10       23 1
  25       14       24 1

@<TRIPOS>MOLECULE

  24   25
SMALL
USER_CHARGES
@<TRIPOS>ATOM
   1 C1           0.7484    -2.6443    -0.0769 C.3          1    LIG   0.0000
   2 O2           1.7845    -1.6736    -0.0523 O.3          1    LIG   0.0000
   3 C3           1.3755    -0.3877    -0.0258 C.2          1    LIG   0.0000
   4 C4           0.0127     0.0124    -0.0252 C.2          1    LIG   0.0000
   5 C5          -0.2292     1.3546    -0.0008 C.2          1    LIG   0.0000
   6 S6           1.3136     2.0803     0.0268 S.3          1    LIG   0.0000
   7 C7           2.2512     0.6579    -0.0001 C.2          1    LIG   0.0000
   8 C8           3.6999     0.5941     0.0026 C.2          1    LIG   0.0000
   9 N9           4.3454     1.0865     0.9531 N.2          1    LIG   0.0000
  10 N10          5.7038     0.9578     0.8301 N.pl3        1    LIG   0.0000
  11 C11          6.5477     1.4654     1.8247 C.2          1    LIG   0.0000
  12 N12          6.1619     2.0818     2.9165 N.2          1    LIG   0.0000
  13 N13          7.2394     2.4066     3.5962 N.2          1    LIG   0.0000
  14 C14          8.3209     2.0113     2.9676 C.2          1    LIG   0.0000
  15 N15          7.9079     1.3992     1.8229 N.pl3        1    LIG   0.0000
  16 H            8.4876     0.9842     1.1216 H            1    LIG   0.0000
  17 H            1.1498    -3.5600    -0.0955 H            1    LIG   0.0000
  18 H            0.1801    -2.5460     0.7400 H            1    LIG   0.0000
  19 H            0.1855    -2.5105    -0.8926 H            1    LIG   0.0000
  20 H           -0.7313    -0.6556    -0.0418 H            1    LIG   0.0000
  21 H           -1.1178     1.8132     0.0006 H            1    LIG   0.0000
  22 H            4.1826     0.1562    -0.7558 H            1    LIG   0.0000
  23 H            6.0924     0.5012     0.0298 H            1    LIG   0.0000
  24 H            9.2659     2.1354     3.2703 H            1    LIG   0.0000
@<TRIPOS>BOND
   1        1        2 1
   2        2        3 1
   3        3        4 1
   4        4        5 2
   5        5        6 1
   6        6        7 1
   7        7        3 2
   8        7        8 1
   9        8        9 2
  10        9       10 1
  11       10       11 1
  12       11       12 2
  13       12       13 1
  14       13       14 2
  15       14       15 1
  16       15       11 1
  17       15       16 1
  18        1       17 1
  19        1       18 1
  20        1       19 1
  21        4       20 1
  22        5       21 1
  23        8       22 1
  24       10       23 1
  25       14       24 1

@<TRIPOS>MOLECULE

  24   25
SMALL
USER_CHARGES
@<TRIPOS>ATOM
   1 C1           0.8610    -2.6197     0.4658 C.3          1    LIG   0.0000
   2 O2           1.7845    -1.6736    -0.0523 O.3          1    LIG   0.0000
   3 C3           1.3755    -0.3877    -0.0258 C.2          1    LIG   0.0000
   4 C4           0.0127     0.0124    -0.0252 C.2          1    LIG   0.0000
   5 C5          -0.2292     1.3546    -0.0008 C.2          1    LIG   0.0000
   6 S6           1.3136     2.0803     0.0268 S.3          1    LIG   0.0000
   7 C7           2.2512     0.6579    -0.0001 C.2          1    LIG   0.0000
   8 C8           3.6999     0.5941     0.0026 C.2          1    LIG   0.0000
   9 N9           4.3454     1.0865     0.9531 N.2          1    LIG   0.0000
  10 N10          5.7038     0.9578     0.8301 N.pl3        1    LIG   0.0000
  11 C11          6.5037     0.8576     1.9743 C.2          1    LIG   0.0000
  12 N12          7.0441     1.8621     2.6222 N.2          1    LIG   0.0000
  13 N13          7.7202     1.3686     3.6362 N.2          1    LIG   0.0000
  14 C14          7.6285     0.0601     3.6617 C.2          1    LIG   0.0000
  15 N15          6.8489    -0.2994     2.6040 N.pl3        1    LIG   0.0000
  16 H            6.5833    -1.2273     2.3424 H            1    LIG   0.0000
  17 H            1.2532    -3.5374     0.4028 H            1    LIG   0.0000
  18 H            0.6660    -2.4055     1.4229 H            1    LIG   0.0000
  19 H            0.0133    -2.5824    -0.0634 H            1    LIG   0.0000
  20 H           -0.7313    -0.6556    -0.0418 H            1    LIG   0.0000
  21 H           -1.1178     1.8132     0.0006 H            1    LIG   0.0000
  22 H            4.1826     0.1562    -0.7558 H            1    LIG   0.0000
  23 H            6.1238     0.9354    -0.0771 H            1    LIG   0.0000
  24 H            8.0496    -0.5545     4.3287 H            1    LIG   0.0000
@<TRIPOS>BOND
   1        1        2 1
   2        2        3 1
   3        3        4 1
   4        4        5 2
   5        5        6 1
   6        6        7 1
   7        7        3 2
   8        7        8 1
   9        8        9 2
  10        9       10 1
  11       10       11 1
  12       11       12 2
  13       12       13 1
  14       13       14 2
  15       14       15 1
  16       15       11 1
  17       15       16 1
  18        1       17 1
  19        1       18 1
  20        1       19 1
  21        4       20 1
  22        5       21 1
  23        8       22 1
  24       10       23 1
  25       14       24 1

@<TRIPOS>MOLECULE

  24   25
SMALL
USER_CHARGES
@<TRIPOS>ATOM
   1 C1           0.8610    -2.6197     0.4658 C.3          1    LIG   0.0000
   2 O2           1.7845    -1.6736    -0.0523 O.3          1    LIG   0.0000
   3 C3           1.3755    -0.3877    -0.0258 C.2          1    LIG   0.0000
   4 C4           0.0127     0.0124    -0.0252 C.2          1    LIG   0.0000
   5 C5          -0.2292     1.3546    -0.0008 C.2          1    LIG   0.0000
   6 S6           1.3136     2.0803     0.0268 S.3          1    LIG   0.0000
   7 C7           2.2512     0.6579    -0.0001 C.2          1    LIG   0.0000
   8 C8           3.6999     0.5941     0.0026 C.2          1    LIG   0.0000
   9 N9           4.3454     1.0865     0.9531 N.2          1    LIG   0.0000
  10 N10          5.7038     0.9578     0.8301 N.pl3        1    LIG   0.0000
  11 C11          6.5037     0.8576     1.9743 C.2          1    LIG   0.0000
  12 N12          6.8396    -0.2565     2.5798 N.2          1    LIG   0.0000
  13 N13          7.5929     0.0581     3.6104 N.2          1    LIG   0.0000
  14 C14          7.7556     1.3576     3.6864 C.2          1    LIG   0.0000
  15 N15          7.0670     1.9010     2.6441 N.pl3        1    LIG   0.0000
  16 H            6.9906     2.8717     2.4164 H            1    LIG   0.0000
  17 H            1.2532    -3.5374     0.4028 H            1    LIG   0.0000
  18 H            0.6660    -2.4055     1.4229 H            1    LIG   0.0000
  19 H            0.0133    -2.5824    -0.0634 H            1    LIG   0.0000
  20 H           -0.7313    -0.6556    -0.0418 H            1    LIG   0.0000
  21 H           -1.1178     1.8132     0.0006 H            1    LIG   0.0000
  22 H            4.1826     0.1562    -0.7558 H            1    LIG   0.0000
  23 H            6.1238     0.9354    -0.0771 H            1    LIG   0.0000
  24 H            8.2830     1.8536     4.3762 H            1    LIG   0.0000
@<TRIPOS>BOND
   1        1        2 1
   2        2        3 1
   3        3        4 1
   4        4        5 2
   5        5        6 1
   6        6        7 1
   7        7        3 2
   8        7        8 1
   9        8        9 2
  10        9       10 1
  11       10       11 1
  12       11       12 2
  13       12       13 1
  14       13       14 2
  15       14       15 1
  16       15       11 1
  17       15       16 1
  18        1       17 1
  19        1       18 1
  20        1       19 1
  21        4       20 1
  22        5       21 1
  23        8       22 1
  24       10       23 1
  25       14       24 1

@<TRIPOS>MOLECULE

  24   25
SMALL
USER_CHARGES
@<TRIPOS>ATOM
   1 C1           0.7484    -2.6443    -0.0769 C.3          1    LIG   0.0000
   2 O2           1.7845    -1.6736    -0.0523 O.3          1    LIG   0.0000
   3 C3           1.3755    -0.3877    -0.0258 C.2          1    LIG   0.0000
   4 C4           0.0127     0.0124    -0.0252 C.2          1    LIG   0.0000
   5 C5          -0.2292     1.3546    -0.0008 C.2          1    LIG   0.0000
   6 S6           1.3136     2.0803     0.0268 S.3          1    LIG   0.0000
   7 C7           2.2512     0.6579    -0.0001 C.2          1    LIG   0.0000
   8 C8           3.6999     0.5941     0.0026 C.2          1    LIG   0.0000
   9 N9           4.3454     1.0865     0.9531 N.2          1    LIG   0.0000
  10 N10          3.5625     1.6542     1.9235 N.pl3        1    LIG   0.0000
  11 C11          4.1561     2.2432     3.0459 C.2          1    LIG   0.0000
  12 N12          3.5182     2.8165     4.0385 N.2          1    LIG   0.0000
  13 N13          4.4160     3.2475     4.8969 N.2          1    LIG   0.0000
  14 C14          5.6278     2.9637     4.4823 C.2          1    LIG   0.0000
  15 N15          5.4936     2.3142     3.2924 N.pl3        1    LIG   0.0000
  16 H            6.2297     1.9604     2.7155 H            1    LIG   0.0000
  17 H            1.1498    -3.5600    -0.0955 H            1    LIG   0.0000
  18 H            0.1801    -2.5460     0.7400 H            1    LIG   0.0000
  19 H            0.1855    -2.5105    -0.8926 H            1    LIG   0.0000
  20 H           -0.7313    -0.6556    -0.0418 H            1    LIG   0.0000
  21 H           -1.1178     1.8132     0.0006 H            1    LIG   0.0000
  22 H            4.1826     0.1562    -0.7558 H            1    LIG   0.0000
  23 H            2.5669     1.6477     1.8300 H            1    LIG   0.0000
  24 H            6.4846     3.1820     4.9495 H            1    LIG   0.0000
@<TRIPOS>BOND
   1        1        2 1
   2        2        3 1
   3        3        4 1
   4        4        5 2
   5        5        6 1
   6        6        7 1
   7        7        3 2
   8        7        8 1
   9        8        9 2
  10        9       10 1
  11       10       11 1
  12       11       12 2
  13       12       13 1
  14       13       14 2
  15       14       15 1
  16       15       11 1
  17       15       16 1
  18        1       17 1
  19        1       18 1
  20        1       19 1
  21        4       20 1
  22        5       21 1
  23        8       22 1
  24       10       23 1
  25       14       24 1

@<TRIPOS>MOLECULE

  24   25
SMALL
USER_CHARGES
@<TRIPOS>ATOM
   1 C1           0.8610    -2.6197     0.4658 C.3          1    LIG   0.0000
   2 O2           1.7845    -1.6736    -0.0523 O.3          1    LIG   0.0000
   3 C3           1.3755    -0.3877    -0.0258 C.2          1    LIG   0.0000
   4 C4           0.0127     0.0124    -0.0252 C.2          1    LIG   0.0000
   5 C5          -0.2292     1.3546    -0.0008 C.2          1    LIG   0.0000
   6 S6           1.3136     2.0803     0.0268 S.3          1    LIG   0.0000
   7 C7           2.2512     0.6579    -0.0001 C.2          1    LIG   0.0000
   8 C8           3.6999     0.5941     0.0026 C.2          1    LIG   0.0000
   9 N9           4.3454     1.0865     0.9531 N.2          1    LIG   0.0000
  10 N10          3.5625     1.6542     1.9235 N.pl3        1    LIG   0.0000
  11 C11          4.1561     2.2432     3.0459 C.2          1    LIG   0.0000
  12 N12          4.4393     1.6333     4.1723 N.2          1    LIG   0.0000
  13 N13          4.9853     2.5153     4.9800 N.2          1    LIG   0.0000
  14 C14          5.0647     3.6891     4.3995 C.2          1    LIG   0.0000
  15 N15          4.5400     3.5455     3.1506 N.pl3        1    LIG   0.0000
  16 H            4.4540     4.2546     2.4507 H            1    LIG   0.0000
  17 H            1.2532    -3.5374     0.4028 H            1    LIG   0.0000
  18 H            0.6660    -2.4055     1.4229 H            1    LIG   0.0000
  19 H            0.0133    -2.5824    -0.0634 H            1    LIG   0.0000
  20 H           -0.7313    -0.6556    -0.0418 H            1    LIG   0.0000
  21 H           -1.1178     1.8132     0.0006 H            1    LIG   0.0000
  22 H            4.1826     0.1562    -0.7558 H            1    LIG   0.0000
  23 H            2.5669     1.6477     1.8300 H            1    LIG   0.0000
  24 H            5.4383     4.5272     4.7969 H            1    LIG   0.0000
@<TRIPOS>BOND
   1        1        2 1
   2        2        3 1
   3        3        4 1
   4        4        5 2
   5        5        6 1
   6        6        7 1
   7        7        3 2
   8        7        8 1
   9        8        9 2
  10        9       10 1
  11       10       11 1
  12       11       12 2
  13       12       13 1
  14       13       14 2
  15       14       15 1
  16       15       11 1
  17       15       16 1
  18        1       17 1
  19        1       18 1
  20        1       19 1
  21        4       20 1
  22        5       21 1
  23        8       22 1
  24       10       23 1
  25       14       24 1

@<TRIPOS>MOLECULE

  24   25
SMALL
USER_CHARGES
@<TRIPOS>ATOM
   1 C1           0.8646    -2.5961    -0.6173 C.3          1    LIG   0.0000
   2 O2           1.7845    -1.6736    -0.0523 O.3          1    LIG   0.0000
   3 C3           1.3755    -0.3877    -0.0258 C.2          1    LIG   0.0000
   4 C4           0.0127     0.0124    -0.0252 C.2          1    LIG   0.0000
   5 C5          -0.2292     1.3546    -0.0008 C.2          1    LIG   0.0000
   6 S6           1.3136     2.0803     0.0268 S.3          1    LIG   0.0000
   7 C7           2.2512     0.6579    -0.0001 C.2          1    LIG   0.0000
   8 C8           3.6999     0.5941     0.0026 C.2          1    LIG   0.0000
   9 N9           4.3454     1.0865     0.9531 N.2          1    LIG   0.0000
  10 N10          3.5625     1.6542     1.9235 N.pl3        1    LIG   0.0000
  11 C11          4.1561     2.2432     3.0459 C.2          1    LIG   0.0000
  12 N12          4.5233     3.4983     3.1490 N.2          1    LIG   0.0000
  13 N13          5.0381     3.6688     4.3468 N.2          1    LIG   0.0000
  14 C14          5.0113     2.5473     5.0269 C.2          1    LIG   0.0000
  15 N15          4.4465     1.6098     4.2159 N.pl3        1    LIG   0.0000
  16 H            4.2786     0.6488     4.4358 H            1    LIG   0.0000
  17 H            1.2565    -3.5158    -0.5915 H            1    LIG   0.0000
  18 H            0.0134    -2.5818    -0.0926 H            1    LIG   0.0000
  19 H            0.6760    -2.3406    -1.5655 H            1    LIG   0.0000
  20 H           -0.7313    -0.6556    -0.0418 H            1    LIG   0.0000
  21 H           -1.1178     1.8132     0.0006 H            1    LIG   0.0000
  22 H            4.1826     0.1562    -0.7558 H            1    LIG   0.0000
  23 H            2.5669     1.6477     1.8300 H            1    LIG   0.0000
  24 H            5.3417     2.4076     5.9604 H            1    LIG   0.0000
@<TRIPOS>BOND
   1        1        2 1
   2        2        3 1
   3        3        4 1
   4        4        5 2
   5        5        6 1
   6        6        7 1
   7        7        3 2
   8        7        8 1
   9        8        9 2
  10        9       10 1
  11       10       11 1
  12       11       12 2
  13       12       13 1
  14       13       14 2
  15       14       15 1
  16       15       11 1
  17       15       16 1
  18        1       17 1
  19        1       18 1
  20        1       19 1
  21        4       20 1
  22        5       21 1
  23        8       22 1
  24       10       23 1
  25       14       24 1

