@<TRIPOS>MOLECULE
*****
 24 25 0 0 0
SMALL
USER_CHARGES

@<TRIPOS>ATOM
      1 C1          0.7484   -2.6443   -0.0769 C.3     1  LIG1        0.0000
      2 O2          1.7845   -1.6736   -0.0523 O.3     1  LIG1        0.0000
      3 C3          1.3755   -0.3877   -0.0258 C.2     1  LIG1        0.0000
      4 C4          0.0127    0.0124   -0.0252 C.2     1  LIG1        0.0000
      5 C5         -0.2292    1.3546   -0.0008 C.2     1  LIG1        0.0000
      6 S6          1.3136    2.0803    0.0268 S.3     1  LIG1        0.0000
      7 C7          2.2512    0.6579   -0.0001 C.2     1  LIG1        0.0000
      8 C8          3.6999    0.5941    0.0026 C.2     1  LIG1        0.0000
      9 N9          4.3508    1.1279   -0.9214 N.2     1  LIG1        0.0000
     10 N10         3.5734    1.7381   -1.8702 N.pl3   1  LIG1        0.0000
     11 C11         4.1734    2.3761   -2.9620 C.2     1  LIG1        0.0000
     12 N12         3.5412    2.9928   -3.9319 N.2     1  LIG1        0.0000
     13 N13         4.4437    3.4606   -4.7657 N.2     1  LIG1        0.0000
     14 C14         5.6533    3.1611   -4.3556 C.2     1  LIG1        0.0000
     15 N15         5.5125    2.4637   -3.1939 N.pl3   1  LIG1        0.0000
     16 H           6.2456    2.0907   -2.6252 H       1  LIG1        0.0000
     17 H           1.1498   -3.5600   -0.0955 H       1  LIG1        0.0000
     18 H           0.1801   -2.5460    0.7400 H       1  LIG1        0.0000
     19 H           0.1855   -2.5105   -0.8926 H       1  LIG1        0.0000
     20 H          -0.7313   -0.6556   -0.0418 H       1  LIG1        0.0000
     21 H          -1.1178    1.8132    0.0006 H       1  LIG1        0.0000
     22 H           4.1783    0.1230    0.7438 H       1  LIG1        0.0000
     23 H           2.5773    1.7276   -1.7828 H       1  LIG1        0.0000
     24 H           6.5127    3.3989   -4.8082 H       1  LIG1        0.0000
@<TRIPOS>BOND
     1     1     2    1
     2     2     3    1
     3     3     4    1
     4     4     5    2
     5     5     6    1
     6     6     7    1
     7     7     3    2
     8     7     8    1
     9     8     9    2
    10     9    10    1
    11    10    11    1
    12    11    12    2
    13    12    13    1
    14    13    14    2
    15    14    15    1
    16    15    11    1
    17    15    16    1
    18     1    17    1
    19     1    18    1
    20     1    19    1
    21     4    20    1
    22     5    21    1
    23     8    22    1
    24    10    23    1
    25    14    24    1
