@<TRIPOS>MOLECULE
*****
 24 25 0 0 0
SMALL
USER_CHARGES

@<TRIPOS>ATOM
      1 C1          0.8646   -2.5961   -0.6173 C.3     1  LIG1        0.0000
      2 O2          1.7845   -1.6736   -0.0523 O.3     1  LIG1        0.0000
      3 C3          1.3755   -0.3877   -0.0258 C.2     1  LIG1        0.0000
      4 C4          0.0127    0.0124   -0.0252 C.2     1  LIG1        0.0000
      5 C5         -0.2292    1.3546   -0.0008 C.2     1  LIG1        0.0000
      6 S6          1.3136    2.0803    0.0268 S.3     1  LIG1        0.0000
      7 C7          2.2512    0.6579   -0.0001 C.2     1  LIG1        0.0000
      8 C8          3.6999    0.5941    0.0026 C.2     1  LIG1        0.0000
      9 N9          4.3454    1.0865    0.9531 N.2     1  LIG1        0.0000
     10 N10         3.5625    1.6542    1.9235 N.pl3   1  LIG1        0.0000
     11 C11         4.1561    2.2432    3.0459 C.2     1  LIG1        0.0000
     12 N12         4.5233    3.4983    3.1490 N.2     1  LIG1        0.0000
     13 N13         5.0381    3.6688    4.3468 N.2     1  LIG1        0.0000
     14 C14         5.0113    2.5473    5.0269 C.2     1  LIG1        0.0000
     15 N15         4.4465    1.6098    4.2159 N.pl3   1  LIG1        0.0000
     16 H           4.2786    0.6488    4.4358 H       1  LIG1        0.0000
     17 H           1.2565   -3.5158   -0.5915 H       1  LIG1        0.0000
     18 H           0.0134   -2.5818   -0.0926 H       1  LIG1        0.0000
     19 H           0.6760   -2.3406   -1.5655 H       1  LIG1        0.0000
     20 H          -0.7313   -0.6556   -0.0418 H       1  LIG1        0.0000
     21 H          -1.1178    1.8132    0.0006 H       1  LIG1        0.0000
     22 H           4.1826    0.1562   -0.7558 H       1  LIG1        0.0000
     23 H           2.5669    1.6477    1.8300 H       1  LIG1        0.0000
     24 H           5.3417    2.4076    5.9604 H       1  LIG1        0.0000
@<TRIPOS>BOND
     1     1     2    1
     2     2     3    1
     3     3     4    1
     4     4     5    2
     5     5     6    1
     6     6     7    1
     7     7     3    2
     8     7     8    1
     9     8     9    2
    10     9    10    1
    11    10    11    1
    12    11    12    2
    13    12    13    1
    14    13    14    2
    15    14    15    1
    16    15    11    1
    17    15    16    1
    18     1    17    1
    19     1    18    1
    20     1    19    1
    21     4    20    1
    22     5    21    1
    23     8    22    1
    24    10    23    1
    25    14    24    1
