@<TRIPOS>MOLECULE

  27   29
SMALL
USER_CHARGES
@<TRIPOS>ATOM
   1 C1           3.6154     0.8991    -0.0367 C.3          1    LIG   0.0000
   2 C2           2.0973     0.8414    -0.0192 C.2          1    LIG   0.0000
   3 O3           1.2706     1.8550     0.0091 O.2          1    LIG   0.0000
   4 C4           0.0249     1.4328     0.0130 C.2          1    LIG   0.0000
   5 C5           0.0479     0.0720    -0.0052 C.2          1    LIG   0.0000
   6 C6           1.4017    -0.3214    -0.0300 C.2          1    LIG   0.0000
   7 C7           1.9282    -1.6733    -0.0552 C.ar         1    LIG   0.0000
   8 C8           1.0460    -2.7488    -0.0565 C.ar         1    LIG   0.0000
   9 C9           1.5617    -4.0405    -0.0809 C.ar         1    LIG   0.0000
  10 N10          0.6811    -5.1299    -0.0823 N.pl3        1    LIG   0.0000
  11 C11         -0.6780    -5.0566    -0.0579 C.2          1    LIG   0.0000
  12 C12         -1.1401    -6.3395    -0.0644 C.2          1    LIG   0.0000
  13 N13         -0.0563    -7.1677    -0.0931 N.2          1    LIG   0.0000
  14 C14          1.0417    -6.4452    -0.1047 C.2          1    LIG   0.0000
  15 N15          2.8921    -4.2114    -0.1026 N.ar         1    LIG   0.0000
  16 C16          3.7328    -3.1658    -0.1008 C.ar         1    LIG   0.0000
  17 N17          3.2478    -1.9148    -0.0775 N.ar         1    LIG   0.0000
  18 H            3.9840    -0.0303    -0.0579 H            1    LIG   0.0000
  19 H            3.9206     1.3973    -0.8483 H            1    LIG   0.0000
  20 H            3.9406     1.3681     0.7844 H            1    LIG   0.0000
  21 H           -0.7926     2.0085     0.0269 H            1    LIG   0.0000
  22 H           -0.7466    -0.5351    -0.0017 H            1    LIG   0.0000
  23 H            0.0579    -2.5960    -0.0403 H            1    LIG   0.0000
  24 H           -1.2306    -4.2233    -0.0390 H            1    LIG   0.0000
  25 H           -2.0992    -6.6220    -0.0506 H            1    LIG   0.0000
  26 H            1.9772    -6.7979    -0.1262 H            1    LIG   0.0000
  27 H            4.7209    -3.3187    -0.1168 H            1    LIG   0.0000
@<TRIPOS>BOND
   1        1        2 1
   2        2        3 1
   3        3        4 1
   4        4        5 2
   5        5        6 1
   6        6        2 2
   7        6        7 1
   8        7        8 ar
   9        8        9 ar
  10        9       10 1
  11       10       11 1
  12       11       12 2
  13       12       13 1
  14       13       14 2
  15       14       10 1
  16        9       15 ar
  17       15       16 ar
  18       16       17 ar
  19       17        7 ar
  20        1       18 1
  21        1       19 1
  22        1       20 1
  23        4       21 1
  24        5       22 1
  25        8       23 1
  26       11       24 1
  27       12       25 1
  28       14       26 1
  29       16       27 1

@<TRIPOS>MOLECULE

  27   29
SMALL
USER_CHARGES
@<TRIPOS>ATOM
   1 C1           3.6154     0.8991    -0.0367 C.3          1    LIG   0.0000
   2 C2           2.0973     0.8414    -0.0192 C.2          1    LIG   0.0000
   3 O3           1.2706     1.8550     0.0091 O.2          1    LIG   0.0000
   4 C4           0.0249     1.4328     0.0130 C.2          1    LIG   0.0000
   5 C5           0.0479     0.0720    -0.0052 C.2          1    LIG   0.0000
   6 C6           1.4017    -0.3214    -0.0300 C.2          1    LIG   0.0000
   7 C7           1.9282    -1.6733    -0.0552 C.ar         1    LIG   0.0000
   8 C8           1.0460    -2.7488    -0.0565 C.ar         1    LIG   0.0000
   9 C9           1.5617    -4.0405    -0.0809 C.ar         1    LIG   0.0000
  10 N10          0.6811    -5.1299    -0.0823 N.pl3        1    LIG   0.0000
  11 C11          1.0379    -6.4435    -0.1081 C.2          1    LIG   0.0000
  12 C12         -0.1196    -7.1643    -0.1041 C.2          1    LIG   0.0000
  13 N13         -1.1567    -6.2784    -0.0754 N.2          1    LIG   0.0000
  14 C14         -0.6805    -5.0533    -0.0614 C.2          1    LIG   0.0000
  15 N15          2.8921    -4.2114    -0.1026 N.ar         1    LIG   0.0000
  16 C16          3.7328    -3.1658    -0.1008 C.ar         1    LIG   0.0000
  17 N17          3.2478    -1.9148    -0.0775 N.ar         1    LIG   0.0000
  18 H            3.9840    -0.0303    -0.0579 H            1    LIG   0.0000
  19 H            3.9206     1.3973    -0.8483 H            1    LIG   0.0000
  20 H            3.9406     1.3681     0.7844 H            1    LIG   0.0000
  21 H           -0.7926     2.0085     0.0269 H            1    LIG   0.0000
  22 H           -0.7466    -0.5351    -0.0017 H            1    LIG   0.0000
  23 H            0.0579    -2.5960    -0.0403 H            1    LIG   0.0000
  24 H            1.9686    -6.8089    -0.1265 H            1    LIG   0.0000
  25 H           -0.1947    -8.1613    -0.1195 H            1    LIG   0.0000
  26 H           -1.2216    -4.2126    -0.0392 H            1    LIG   0.0000
  27 H            4.7209    -3.3187    -0.1168 H            1    LIG   0.0000
@<TRIPOS>BOND
   1        1        2 1
   2        2        3 1
   3        3        4 1
   4        4        5 2
   5        5        6 1
   6        6        2 2
   7        6        7 1
   8        7        8 ar
   9        8        9 ar
  10        9       10 1
  11       10       11 1
  12       11       12 2
  13       12       13 1
  14       13       14 2
  15       14       10 1
  16        9       15 ar
  17       15       16 ar
  18       16       17 ar
  19       17        7 ar
  20        1       18 1
  21        1       19 1
  22        1       20 1
  23        4       21 1
  24        5       22 1
  25        8       23 1
  26       11       24 1
  27       12       25 1
  28       14       26 1
  29       16       27 1

@<TRIPOS>MOLECULE

  27   29
SMALL
USER_CHARGES
@<TRIPOS>ATOM
   1 C1           3.6154     0.8991    -0.0367 C.3          1    LIG   0.0000
   2 C2           2.0973     0.8414    -0.0192 C.2          1    LIG   0.0000
   3 O3           1.2706     1.8550     0.0091 O.2          1    LIG   0.0000
   4 C4           0.0249     1.4328     0.0130 C.2          1    LIG   0.0000
   5 C5           0.0479     0.0720    -0.0052 C.2          1    LIG   0.0000
   6 C6           1.4017    -0.3214    -0.0300 C.2          1    LIG   0.0000
   7 C7           1.9282    -1.6733    -0.0552 C.ar         1    LIG   0.0000
   8 C8           2.1583    -2.2929    -1.2791 C.ar         1    LIG   0.0000
   9 C9           2.6634    -3.5890    -1.2914 C.ar         1    LIG   0.0000
  10 N10          2.8981    -4.2213    -2.5191 N.pl3        1    LIG   0.0000
  11 C11          2.6729    -3.6831    -3.7491 C.2          1    LIG   0.0000
  12 C12          3.0296    -4.6303    -4.6629 C.2          1    LIG   0.0000
  13 N13          3.4648    -5.7244    -3.9738 N.2          1    LIG   0.0000
  14 C14          3.3885    -5.4834    -2.6839 C.2          1    LIG   0.0000
  15 N15          2.9136    -4.2026    -0.1249 N.ar         1    LIG   0.0000
  16 C16          2.6873    -3.5943     1.0492 C.ar         1    LIG   0.0000
  17 N17          2.2003    -2.3442     1.0745 N.ar         1    LIG   0.0000
  18 H            3.9840    -0.0303    -0.0579 H            1    LIG   0.0000
  19 H            3.9206     1.3973    -0.8483 H            1    LIG   0.0000
  20 H            3.9406     1.3681     0.7844 H            1    LIG   0.0000
  21 H           -0.7926     2.0085     0.0269 H            1    LIG   0.0000
  22 H           -0.7466    -0.5351    -0.0017 H            1    LIG   0.0000
  23 H            1.9640    -1.8148    -2.1357 H            1    LIG   0.0000
  24 H            2.3151    -2.7700    -3.9446 H            1    LIG   0.0000
  25 H            2.9810    -4.5395    -5.6575 H            1    LIG   0.0000
  26 H            3.6450    -6.1145    -1.9519 H            1    LIG   0.0000
  27 H            2.8814    -4.0726     1.9057 H            1    LIG   0.0000
@<TRIPOS>BOND
   1        1        2 1
   2        2        3 1
   3        3        4 1
   4        4        5 2
   5        5        6 1
   6        6        2 2
   7        6        7 1
   8        7        8 ar
   9        8        9 ar
  10        9       10 1
  11       10       11 1
  12       11       12 2
  13       12       13 1
  14       13       14 2
  15       14       10 1
  16        9       15 ar
  17       15       16 ar
  18       16       17 ar
  19       17        7 ar
  20        1       18 1
  21        1       19 1
  22        1       20 1
  23        4       21 1
  24        5       22 1
  25        8       23 1
  26       11       24 1
  27       12       25 1
  28       14       26 1
  29       16       27 1

@<TRIPOS>MOLECULE

  27   29
SMALL
USER_CHARGES
@<TRIPOS>ATOM
   1 C1           3.6154     0.8991    -0.0367 C.3          1    LIG   0.0000
   2 C2           2.0973     0.8414    -0.0192 C.2          1    LIG   0.0000
   3 O3           1.2706     1.8550     0.0091 O.2          1    LIG   0.0000
   4 C4           0.0249     1.4328     0.0130 C.2          1    LIG   0.0000
   5 C5           0.0479     0.0720    -0.0052 C.2          1    LIG   0.0000
   6 C6           1.4017    -0.3214    -0.0300 C.2          1    LIG   0.0000
   7 C7           1.9282    -1.6733    -0.0552 C.ar         1    LIG   0.0000
   8 C8           2.1583    -2.2929    -1.2791 C.ar         1    LIG   0.0000
   9 C9           2.6634    -3.5890    -1.2914 C.ar         1    LIG   0.0000
  10 N10          2.8981    -4.2213    -2.5191 N.pl3        1    LIG   0.0000
  11 C11          3.3907    -5.4794    -2.6867 C.2          1    LIG   0.0000
  12 C12          3.4657    -5.6951    -4.0311 C.2          1    LIG   0.0000
  13 N13          3.0181    -4.5675    -4.6551 N.2          1    LIG   0.0000
  14 C14          2.6747    -3.6781    -3.7502 C.2          1    LIG   0.0000
  15 N15          2.9136    -4.2026    -0.1249 N.ar         1    LIG   0.0000
  16 C16          2.6873    -3.5943     1.0492 C.ar         1    LIG   0.0000
  17 N17          2.2003    -2.3442     1.0745 N.ar         1    LIG   0.0000
  18 H            3.9840    -0.0303    -0.0579 H            1    LIG   0.0000
  19 H            3.9206     1.3973    -0.8483 H            1    LIG   0.0000
  20 H            3.9406     1.3681     0.7844 H            1    LIG   0.0000
  21 H           -0.7926     2.0085     0.0269 H            1    LIG   0.0000
  22 H           -0.7466    -0.5351    -0.0017 H            1    LIG   0.0000
  23 H            1.9640    -1.8148    -2.1357 H            1    LIG   0.0000
  24 H            3.6476    -6.1209    -1.9640 H            1    LIG   0.0000
  25 H            3.7901    -6.5286    -4.4784 H            1    LIG   0.0000
  26 H            2.3131    -2.7638    -3.9323 H            1    LIG   0.0000
  27 H            2.8814    -4.0726     1.9057 H            1    LIG   0.0000
@<TRIPOS>BOND
   1        1        2 1
   2        2        3 1
   3        3        4 1
   4        4        5 2
   5        5        6 1
   6        6        2 2
   7        6        7 1
   8        7        8 ar
   9        8        9 ar
  10        9       10 1
  11       10       11 1
  12       11       12 2
  13       12       13 1
  14       13       14 2
  15       14       10 1
  16        9       15 ar
  17       15       16 ar
  18       16       17 ar
  19       17        7 ar
  20        1       18 1
  21        1       19 1
  22        1       20 1
  23        4       21 1
  24        5       22 1
  25        8       23 1
  26       11       24 1
  27       12       25 1
  28       14       26 1
  29       16       27 1

@<TRIPOS>MOLECULE

  27   29
SMALL
USER_CHARGES
@<TRIPOS>ATOM
   1 C1           3.6154     0.8991    -0.0367 C.3          1    LIG   0.0000
   2 C2           2.0973     0.8414    -0.0192 C.2          1    LIG   0.0000
   3 O3           1.2706     1.8550     0.0091 O.2          1    LIG   0.0000
   4 C4           0.0249     1.4328     0.0130 C.2          1    LIG   0.0000
   5 C5           0.0479     0.0720    -0.0052 C.2          1    LIG   0.0000
   6 C6           1.4017    -0.3214    -0.0300 C.2          1    LIG   0.0000
   7 C7           1.9282    -1.6733    -0.0552 C.ar         1    LIG   0.0000
   8 C8           2.1930    -2.3245     1.1452 C.ar         1    LIG   0.0000
   9 C9           2.6973    -3.6204     1.1093 C.ar         1    LIG   0.0000
  10 N10          2.9673    -4.2841     2.3130 N.pl3        1    LIG   0.0000
  11 C11          2.7848    -3.7753     3.5624 C.2          1    LIG   0.0000
  12 C12          3.1739    -4.7433     4.4406 C.2          1    LIG   0.0000
  13 N13          3.5843    -5.8206     3.7112 N.2          1    LIG   0.0000
  14 C14          3.4613    -5.5500     2.4308 C.2          1    LIG   0.0000
  15 N15          2.9131    -4.2036    -0.0794 N.ar         1    LIG   0.0000
  16 C16          2.6539    -3.5649    -1.2304 C.ar         1    LIG   0.0000
  17 N17          2.1671    -2.3147    -1.2092 N.ar         1    LIG   0.0000
  18 H            3.9840    -0.0303    -0.0579 H            1    LIG   0.0000
  19 H            3.9206     1.3973    -0.8483 H            1    LIG   0.0000
  20 H            3.9406     1.3681     0.7844 H            1    LIG   0.0000
  21 H           -0.7926     2.0085     0.0269 H            1    LIG   0.0000
  22 H           -0.7466    -0.5351    -0.0017 H            1    LIG   0.0000
  23 H            2.0236    -1.8687     2.0191 H            1    LIG   0.0000
  24 H            2.4335    -2.8676     3.7918 H            1    LIG   0.0000
  25 H            3.1607    -4.6756     5.4382 H            1    LIG   0.0000
  26 H            3.6899    -6.1644     1.6756 H            1    LIG   0.0000
  27 H            2.8235    -4.0207    -2.1042 H            1    LIG   0.0000
@<TRIPOS>BOND
   1        1        2 1
   2        2        3 1
   3        3        4 1
   4        4        5 2
   5        5        6 1
   6        6        2 2
   7        6        7 1
   8        7        8 ar
   9        8        9 ar
  10        9       10 1
  11       10       11 1
  12       11       12 2
  13       12       13 1
  14       13       14 2
  15       14       10 1
  16        9       15 ar
  17       15       16 ar
  18       16       17 ar
  19       17        7 ar
  20        1       18 1
  21        1       19 1
  22        1       20 1
  23        4       21 1
  24        5       22 1
  25        8       23 1
  26       11       24 1
  27       12       25 1
  28       14       26 1
  29       16       27 1

@<TRIPOS>MOLECULE

  27   29
SMALL
USER_CHARGES
@<TRIPOS>ATOM
   1 C1           3.6154     0.8991    -0.0367 C.3          1    LIG   0.0000
   2 C2           2.0973     0.8414    -0.0192 C.2          1    LIG   0.0000
   3 O3           1.2706     1.8550     0.0091 O.2          1    LIG   0.0000
   4 C4           0.0249     1.4328     0.0130 C.2          1    LIG   0.0000
   5 C5           0.0479     0.0720    -0.0052 C.2          1    LIG   0.0000
   6 C6           1.4017    -0.3214    -0.0300 C.2          1    LIG   0.0000
   7 C7           1.9282    -1.6733    -0.0552 C.ar         1    LIG   0.0000
   8 C8           2.1930    -2.3245     1.1452 C.ar         1    LIG   0.0000
   9 C9           2.6973    -3.6204     1.1093 C.ar         1    LIG   0.0000
  10 N10          2.9673    -4.2841     2.3130 N.pl3        1    LIG   0.0000
  11 C11          3.4571    -5.5486     2.4337 C.2          1    LIG   0.0000
  12 C12          3.5645    -5.8015     3.7693 C.2          1    LIG   0.0000
  13 N13          3.1398    -4.6890     4.4350 N.2          1    LIG   0.0000
  14 C14          2.7801    -3.7730     3.5636 C.2          1    LIG   0.0000
  15 N15          2.9131    -4.2036    -0.0794 N.ar         1    LIG   0.0000
  16 C16          2.6539    -3.5649    -1.2304 C.ar         1    LIG   0.0000
  17 N17          2.1671    -2.3147    -1.2092 N.ar         1    LIG   0.0000
  18 H            3.9840    -0.0303    -0.0579 H            1    LIG   0.0000
  19 H            3.9206     1.3973    -0.8483 H            1    LIG   0.0000
  20 H            3.9406     1.3681     0.7844 H            1    LIG   0.0000
  21 H           -0.7926     2.0085     0.0269 H            1    LIG   0.0000
  22 H           -0.7466    -0.5351    -0.0017 H            1    LIG   0.0000
  23 H            2.0236    -1.8687     2.0191 H            1    LIG   0.0000
  24 H            3.6925    -6.1713     1.6875 H            1    LIG   0.0000
  25 H            3.8947    -6.6488     4.1854 H            1    LIG   0.0000
  26 H            2.4306    -2.8613     3.7797 H            1    LIG   0.0000
  27 H            2.8235    -4.0207    -2.1042 H            1    LIG   0.0000
@<TRIPOS>BOND
   1        1        2 1
   2        2        3 1
   3        3        4 1
   4        4        5 2
   5        5        6 1
   6        6        2 2
   7        6        7 1
   8        7        8 ar
   9        8        9 ar
  10        9       10 1
  11       10       11 1
  12       11       12 2
  13       12       13 1
  14       13       14 2
  15       14       10 1
  16        9       15 ar
  17       15       16 ar
  18       16       17 ar
  19       17        7 ar
  20        1       18 1
  21        1       19 1
  22        1       20 1
  23        4       21 1
  24        5       22 1
  25        8       23 1
  26       11       24 1
  27       12       25 1
  28       14       26 1
  29       16       27 1

@<TRIPOS>MOLECULE

  27   29
SMALL
USER_CHARGES
@<TRIPOS>ATOM
   1 C1           3.6154     0.8991    -0.0367 C.3          1    LIG   0.0000
   2 C2           2.0973     0.8414    -0.0192 C.2          1    LIG   0.0000
   3 O3           1.2706     1.8550     0.0091 O.2          1    LIG   0.0000
   4 C4           0.0249     1.4328     0.0130 C.2          1    LIG   0.0000
   5 C5           0.0479     0.0720    -0.0052 C.2          1    LIG   0.0000
   6 C6           1.4017    -0.3214    -0.0300 C.2          1    LIG   0.0000
   7 C7           1.9282    -1.6733    -0.0552 C.ar         1    LIG   0.0000
   8 C8           3.0299    -1.9614    -0.8541 C.ar         1    LIG   0.0000
   9 C9           3.5264    -3.2607    -0.8704 C.ar         1    LIG   0.0000
  10 N10          4.6353    -3.5605    -1.6720 N.pl3        1    LIG   0.0000
  11 C11          5.6344    -2.6981    -2.0056 C.2          1    LIG   0.0000
  12 C12          6.5026    -3.3911    -2.7966 C.2          1    LIG   0.0000
  13 N13          6.0173    -4.6592    -2.9288 N.2          1    LIG   0.0000
  14 C14          4.8946    -4.7667    -2.2537 C.2          1    LIG   0.0000
  15 N15          2.9298    -4.1964    -0.1165 N.ar         1    LIG   0.0000
  16 C16          1.8676    -3.9061     0.6499 C.ar         1    LIG   0.0000
  17 N17          1.3793    -2.6565     0.6744 N.ar         1    LIG   0.0000
  18 H            3.9840    -0.0303    -0.0579 H            1    LIG   0.0000
  19 H            3.9206     1.3973    -0.8483 H            1    LIG   0.0000
  20 H            3.9406     1.3681     0.7844 H            1    LIG   0.0000
  21 H           -0.7926     2.0085     0.0269 H            1    LIG   0.0000
  22 H           -0.7466    -0.5351    -0.0017 H            1    LIG   0.0000
  23 H            3.4576    -1.2466    -1.4074 H            1    LIG   0.0000
  24 H            5.7159    -1.7418    -1.7250 H            1    LIG   0.0000
  25 H            7.3426    -3.0344    -3.2055 H            1    LIG   0.0000
  26 H            4.3297    -5.5886    -2.1795 H            1    LIG   0.0000
  27 H            1.4397    -4.6210     1.2029 H            1    LIG   0.0000
@<TRIPOS>BOND
   1        1        2 1
   2        2        3 1
   3        3        4 1
   4        4        5 2
   5        5        6 1
   6        6        2 2
   7        6        7 1
   8        7        8 ar
   9        8        9 ar
  10        9       10 1
  11       10       11 1
  12       11       12 2
  13       12       13 1
  14       13       14 2
  15       14       10 1
  16        9       15 ar
  17       15       16 ar
  18       16       17 ar
  19       17        7 ar
  20        1       18 1
  21        1       19 1
  22        1       20 1
  23        4       21 1
  24        5       22 1
  25        8       23 1
  26       11       24 1
  27       12       25 1
  28       14       26 1
  29       16       27 1

@<TRIPOS>MOLECULE

  27   29
SMALL
USER_CHARGES
@<TRIPOS>ATOM
   1 C1           3.6154     0.8991    -0.0367 C.3          1    LIG   0.0000
   2 C2           2.0973     0.8414    -0.0192 C.2          1    LIG   0.0000
   3 O3           1.2706     1.8550     0.0091 O.2          1    LIG   0.0000
   4 C4           0.0249     1.4328     0.0130 C.2          1    LIG   0.0000
   5 C5           0.0479     0.0720    -0.0052 C.2          1    LIG   0.0000
   6 C6           1.4017    -0.3214    -0.0300 C.2          1    LIG   0.0000
   7 C7           1.9282    -1.6733    -0.0552 C.ar         1    LIG   0.0000
   8 C8           3.0299    -1.9614    -0.8541 C.ar         1    LIG   0.0000
   9 C9           3.5264    -3.2607    -0.8704 C.ar         1    LIG   0.0000
  10 N10          4.6353    -3.5605    -1.6720 N.pl3        1    LIG   0.0000
  11 C11          4.8614    -3.0887    -2.9288 C.2          1    LIG   0.0000
  12 C12          6.0430    -3.6287    -3.3436 C.2          1    LIG   0.0000
  13 N13          6.5130    -4.4165    -2.3338 N.2          1    LIG   0.0000
  14 C14          5.6704    -4.3785    -1.3257 C.2          1    LIG   0.0000
  15 N15          2.9298    -4.1964    -0.1165 N.ar         1    LIG   0.0000
  16 C16          1.8676    -3.9061     0.6499 C.ar         1    LIG   0.0000
  17 N17          1.3793    -2.6565     0.6744 N.ar         1    LIG   0.0000
  18 H            3.9840    -0.0303    -0.0579 H            1    LIG   0.0000
  19 H            3.9206     1.3973    -0.8483 H            1    LIG   0.0000
  20 H            3.9406     1.3681     0.7844 H            1    LIG   0.0000
  21 H           -0.7926     2.0085     0.0269 H            1    LIG   0.0000
  22 H           -0.7466    -0.5351    -0.0017 H            1    LIG   0.0000
  23 H            3.4576    -1.2466    -1.4074 H            1    LIG   0.0000
  24 H            4.2748    -2.4667    -3.4474 H            1    LIG   0.0000
  25 H            6.4847    -3.4750    -4.2274 H            1    LIG   0.0000
  26 H            5.7707    -4.8640    -0.4572 H            1    LIG   0.0000
  27 H            1.4397    -4.6210     1.2029 H            1    LIG   0.0000
@<TRIPOS>BOND
   1        1        2 1
   2        2        3 1
   3        3        4 1
   4        4        5 2
   5        5        6 1
   6        6        2 2
   7        6        7 1
   8        7        8 ar
   9        8        9 ar
  10        9       10 1
  11       10       11 1
  12       11       12 2
  13       12       13 1
  14       13       14 2
  15       14       10 1
  16        9       15 ar
  17       15       16 ar
  18       16       17 ar
  19       17        7 ar
  20        1       18 1
  21        1       19 1
  22        1       20 1
  23        4       21 1
  24        5       22 1
  25        8       23 1
  26       11       24 1
  27       12       25 1
  28       14       26 1
  29       16       27 1

@<TRIPOS>MOLECULE

  27   29
SMALL
USER_CHARGES
@<TRIPOS>ATOM
   1 C1           3.6154     0.8991    -0.0367 C.3          1    LIG   0.0000
   2 C2           2.0973     0.8414    -0.0192 C.2          1    LIG   0.0000
   3 O3           1.2706     1.8550     0.0091 O.2          1    LIG   0.0000
   4 C4           0.0249     1.4328     0.0130 C.2          1    LIG   0.0000
   5 C5           0.0479     0.0720    -0.0052 C.2          1    LIG   0.0000
   6 C6           1.4017    -0.3214    -0.0300 C.2          1    LIG   0.0000
   7 C7           1.9282    -1.6733    -0.0552 C.ar         1    LIG   0.0000
   8 C8           3.0299    -1.9614    -0.8541 C.ar         1    LIG   0.0000
   9 C9           3.5264    -3.2607    -0.8704 C.ar         1    LIG   0.0000
  10 N10          4.6353    -3.5605    -1.6720 N.pl3        1    LIG   0.0000
  11 C11          4.8985    -4.7643    -2.2510 C.2          1    LIG   0.0000
  12 C12          6.0699    -4.6227    -2.9345 C.2          1    LIG   0.0000
  13 N13          6.4965    -3.3387    -2.7598 N.2          1    LIG   0.0000
  14 C14          5.6367    -2.6952    -2.0018 C.2          1    LIG   0.0000
  15 N15          2.9298    -4.1964    -0.1165 N.ar         1    LIG   0.0000
  16 C16          1.8676    -3.9061     0.6499 C.ar         1    LIG   0.0000
  17 N17          1.3793    -2.6565     0.6744 N.ar         1    LIG   0.0000
  18 H            3.9840    -0.0303    -0.0579 H            1    LIG   0.0000
  19 H            3.9206     1.3973    -0.8483 H            1    LIG   0.0000
  20 H            3.9406     1.3681     0.7844 H            1    LIG   0.0000
  21 H           -0.7926     2.0085     0.0269 H            1    LIG   0.0000
  22 H           -0.7466    -0.5351    -0.0017 H            1    LIG   0.0000
  23 H            3.4576    -1.2466    -1.4074 H            1    LIG   0.0000
  24 H            4.3408    -5.5919    -2.1873 H            1    LIG   0.0000
  25 H            6.5324    -5.3315    -3.4671 H            1    LIG   0.0000
  26 H            5.7049    -1.7391    -1.7169 H            1    LIG   0.0000
  27 H            1.4397    -4.6210     1.2029 H            1    LIG   0.0000
@<TRIPOS>BOND
   1        1        2 1
   2        2        3 1
   3        3        4 1
   4        4        5 2
   5        5        6 1
   6        6        2 2
   7        6        7 1
   8        7        8 ar
   9        8        9 ar
  10        9       10 1
  11       10       11 1
  12       11       12 2
  13       12       13 1
  14       13       14 2
  15       14       10 1
  16        9       15 ar
  17       15       16 ar
  18       16       17 ar
  19       17        7 ar
  20        1       18 1
  21        1       19 1
  22        1       20 1
  23        4       21 1
  24        5       22 1
  25        8       23 1
  26       11       24 1
  27       12       25 1
  28       14       26 1
  29       16       27 1

@<TRIPOS>MOLECULE

  27   29
SMALL
USER_CHARGES
@<TRIPOS>ATOM
   1 C1           3.6154     0.8991    -0.0367 C.3          1    LIG   0.0000
   2 C2           2.0973     0.8414    -0.0192 C.2          1    LIG   0.0000
   3 O3           1.2706     1.8550     0.0091 O.2          1    LIG   0.0000
   4 C4           0.0249     1.4328     0.0130 C.2          1    LIG   0.0000
   5 C5           0.0479     0.0720    -0.0052 C.2          1    LIG   0.0000
   6 C6           1.4017    -0.3214    -0.0300 C.2          1    LIG   0.0000
   7 C7           1.9282    -1.6733    -0.0552 C.ar         1    LIG   0.0000
   8 C8           3.0299    -1.9614    -0.8541 C.ar         1    LIG   0.0000
   9 C9           3.5264    -3.2607    -0.8704 C.ar         1    LIG   0.0000
  10 N10          4.6353    -3.5605    -1.6720 N.pl3        1    LIG   0.0000
  11 C11          5.6715    -4.3737    -1.3278 C.2          1    LIG   0.0000
  12 C12          6.5296    -4.3852    -2.3875 C.2          1    LIG   0.0000
  13 N13          6.0008    -3.5814    -3.3548 N.2          1    LIG   0.0000
  14 C14          4.8609    -3.0835    -2.9298 C.2          1    LIG   0.0000
  15 N15          2.9298    -4.1964    -0.1165 N.ar         1    LIG   0.0000
  16 C16          1.8676    -3.9061     0.6499 C.ar         1    LIG   0.0000
  17 N17          1.3793    -2.6565     0.6744 N.ar         1    LIG   0.0000
  18 H            3.9840    -0.0303    -0.0579 H            1    LIG   0.0000
  19 H            3.9206     1.3973    -0.8483 H            1    LIG   0.0000
  20 H            3.9406     1.3681     0.7844 H            1    LIG   0.0000
  21 H           -0.7926     2.0085     0.0269 H            1    LIG   0.0000
  22 H           -0.7466    -0.5351    -0.0017 H            1    LIG   0.0000
  23 H            3.4576    -1.2466    -1.4074 H            1    LIG   0.0000
  24 H            5.7819    -4.8669    -0.4649 H            1    LIG   0.0000
  25 H            7.3903    -4.8910    -2.4452 H            1    LIG   0.0000
  26 H            4.2640    -2.4637    -3.4392 H            1    LIG   0.0000
  27 H            1.4397    -4.6210     1.2029 H            1    LIG   0.0000
@<TRIPOS>BOND
   1        1        2 1
   2        2        3 1
   3        3        4 1
   4        4        5 2
   5        5        6 1
   6        6        2 2
   7        6        7 1
   8        7        8 ar
   9        8        9 ar
  10        9       10 1
  11       10       11 1
  12       11       12 2
  13       12       13 1
  14       13       14 2
  15       14       10 1
  16        9       15 ar
  17       15       16 ar
  18       16       17 ar
  19       17        7 ar
  20        1       18 1
  21        1       19 1
  22        1       20 1
  23        4       21 1
  24        5       22 1
  25        8       23 1
  26       11       24 1
  27       12       25 1
  28       14       26 1
  29       16       27 1

@<TRIPOS>MOLECULE

  27   29
SMALL
USER_CHARGES
@<TRIPOS>ATOM
   1 C1           3.6154     0.8991    -0.0367 C.3          1    LIG   0.0000
   2 C2           2.0973     0.8414    -0.0192 C.2          1    LIG   0.0000
   3 O3           1.2706     1.8550     0.0091 O.2          1    LIG   0.0000
   4 C4           0.0249     1.4328     0.0130 C.2          1    LIG   0.0000
   5 C5           0.0479     0.0720    -0.0052 C.2          1    LIG   0.0000
   6 C6           1.4017    -0.3214    -0.0300 C.2          1    LIG   0.0000
   7 C7           1.9282    -1.6733    -0.0552 C.ar         1    LIG   0.0000
   8 C8           2.7555    -2.1023     0.9776 C.ar         1    LIG   0.0000
   9 C9           3.2544    -3.4004     0.9435 C.ar         1    LIG   0.0000
  10 N10          4.0884    -3.8413     1.9789 N.pl3        1    LIG   0.0000
  11 C11          4.0504    -3.4130     3.2706 C.2          1    LIG   0.0000
  12 C12          5.0285    -4.0903     3.9371 C.2          1    LIG   0.0000
  13 N13          5.6415    -4.9165     3.0412 N.2          1    LIG   0.0000
  14 C14          5.0794    -4.7712     1.8619 C.2          1    LIG   0.0000
  15 N15          2.9238    -4.1994    -0.0822 N.ar         1    LIG   0.0000
  16 C16          2.1250    -3.7738    -1.0726 C.ar         1    LIG   0.0000
  17 N17          1.6373    -2.5239    -1.0511 N.ar         1    LIG   0.0000
  18 H            3.9840    -0.0303    -0.0579 H            1    LIG   0.0000
  19 H            3.9206     1.3973    -0.8483 H            1    LIG   0.0000
  20 H            3.9406     1.3681     0.7844 H            1    LIG   0.0000
  21 H           -0.7926     2.0085     0.0269 H            1    LIG   0.0000
  22 H           -0.7466    -0.5351    -0.0017 H            1    LIG   0.0000
  23 H            2.9876    -1.4880     1.7318 H            1    LIG   0.0000
  24 H            3.4262    -2.7334     3.6559 H            1    LIG   0.0000
  25 H            5.2552    -3.9980     4.9067 H            1    LIG   0.0000
  26 H            5.3337    -5.2571     1.0257 H            1    LIG   0.0000
  27 H            1.8932    -4.3881    -1.8268 H            1    LIG   0.0000
@<TRIPOS>BOND
   1        1        2 1
   2        2        3 1
   3        3        4 1
   4        4        5 2
   5        5        6 1
   6        6        2 2
   7        6        7 1
   8        7        8 ar
   9        8        9 ar
  10        9       10 1
  11       10       11 1
  12       11       12 2
  13       12       13 1
  14       13       14 2
  15       14       10 1
  16        9       15 ar
  17       15       16 ar
  18       16       17 ar
  19       17        7 ar
  20        1       18 1
  21        1       19 1
  22        1       20 1
  23        4       21 1
  24        5       22 1
  25        8       23 1
  26       11       24 1
  27       12       25 1
  28       14       26 1
  29       16       27 1

@<TRIPOS>MOLECULE

  27   29
SMALL
USER_CHARGES
@<TRIPOS>ATOM
   1 C1           3.6154     0.8991    -0.0367 C.3          1    LIG   0.0000
   2 C2           2.0973     0.8414    -0.0192 C.2          1    LIG   0.0000
   3 O3           1.2706     1.8550     0.0091 O.2          1    LIG   0.0000
   4 C4           0.0249     1.4328     0.0130 C.2          1    LIG   0.0000
   5 C5           0.0479     0.0720    -0.0052 C.2          1    LIG   0.0000
   6 C6           1.4017    -0.3214    -0.0300 C.2          1    LIG   0.0000
   7 C7           1.9282    -1.6733    -0.0552 C.ar         1    LIG   0.0000
   8 C8           2.7555    -2.1023     0.9776 C.ar         1    LIG   0.0000
   9 C9           3.2544    -3.4004     0.9435 C.ar         1    LIG   0.0000
  10 N10          4.0884    -3.8413     1.9789 N.pl3        1    LIG   0.0000
  11 C11          4.9331    -3.0623     2.7089 C.2          1    LIG   0.0000
  12 C12          5.5538    -3.8861     3.6008 C.2          1    LIG   0.0000
  13 N13          5.0762    -5.1478     3.3981 N.2          1    LIG   0.0000
  14 C14          4.1938    -5.1263     2.4240 C.2          1    LIG   0.0000
  15 N15          2.9238    -4.1994    -0.0822 N.ar         1    LIG   0.0000
  16 C16          2.1250    -3.7738    -1.0726 C.ar         1    LIG   0.0000
  17 N17          1.6373    -2.5239    -1.0511 N.ar         1    LIG   0.0000
  18 H            3.9840    -0.0303    -0.0579 H            1    LIG   0.0000
  19 H            3.9206     1.3973    -0.8483 H            1    LIG   0.0000
  20 H            3.9406     1.3681     0.7844 H            1    LIG   0.0000
  21 H           -0.7926     2.0085     0.0269 H            1    LIG   0.0000
  22 H           -0.7466    -0.5351    -0.0017 H            1    LIG   0.0000
  23 H            2.9876    -1.4880     1.7318 H            1    LIG   0.0000
  24 H            5.0716    -2.0768     2.6102 H            1    LIG   0.0000
  25 H            6.2355    -3.6146     4.2803 H            1    LIG   0.0000
  26 H            3.6886    -5.9138     2.0712 H            1    LIG   0.0000
  27 H            1.8932    -4.3881    -1.8268 H            1    LIG   0.0000
@<TRIPOS>BOND
   1        1        2 1
   2        2        3 1
   3        3        4 1
   4        4        5 2
   5        5        6 1
   6        6        2 2
   7        6        7 1
   8        7        8 ar
   9        8        9 ar
  10        9       10 1
  11       10       11 1
  12       11       12 2
  13       12       13 1
  14       13       14 2
  15       14       10 1
  16        9       15 ar
  17       15       16 ar
  18       16       17 ar
  19       17        7 ar
  20        1       18 1
  21        1       19 1
  22        1       20 1
  23        4       21 1
  24        5       22 1
  25        8       23 1
  26       11       24 1
  27       12       25 1
  28       14       26 1
  29       16       27 1

@<TRIPOS>MOLECULE

  27   29
SMALL
USER_CHARGES
@<TRIPOS>ATOM
   1 C1           3.6154     0.8991    -0.0367 C.3          1    LIG   0.0000
   2 C2           2.0973     0.8414    -0.0192 C.2          1    LIG   0.0000
   3 O3           1.2706     1.8550     0.0091 O.2          1    LIG   0.0000
   4 C4           0.0249     1.4328     0.0130 C.2          1    LIG   0.0000
   5 C5           0.0479     0.0720    -0.0052 C.2          1    LIG   0.0000
   6 C6           1.4017    -0.3214    -0.0300 C.2          1    LIG   0.0000
   7 C7           1.9282    -1.6733    -0.0552 C.ar         1    LIG   0.0000
   8 C8           2.7555    -2.1023     0.9776 C.ar         1    LIG   0.0000
   9 C9           3.2544    -3.4004     0.9435 C.ar         1    LIG   0.0000
  10 N10          4.0884    -3.8413     1.9789 N.pl3        1    LIG   0.0000
  11 C11          5.0759    -4.7716     1.8659 C.2          1    LIG   0.0000
  12 C12          5.6319    -4.9055     3.1038 C.2          1    LIG   0.0000
  13 N13          4.9747    -4.0559     3.9449 N.2          1    LIG   0.0000
  14 C14          4.0457    -3.4128     3.2731 C.2          1    LIG   0.0000
  15 N15          2.9238    -4.1994    -0.0822 N.ar         1    LIG   0.0000
  16 C16          2.1250    -3.7738    -1.0726 C.ar         1    LIG   0.0000
  17 N17          1.6373    -2.5239    -1.0511 N.ar         1    LIG   0.0000
  18 H            3.9840    -0.0303    -0.0579 H            1    LIG   0.0000
  19 H            3.9206     1.3973    -0.8483 H            1    LIG   0.0000
  20 H            3.9406     1.3681     0.7844 H            1    LIG   0.0000
  21 H           -0.7926     2.0085     0.0269 H            1    LIG   0.0000
  22 H           -0.7466    -0.5351    -0.0017 H            1    LIG   0.0000
  23 H            2.9876    -1.4880     1.7318 H            1    LIG   0.0000
  24 H            5.3420    -5.2619     1.0359 H            1    LIG   0.0000
  25 H            6.3848    -5.5156     3.3503 H            1    LIG   0.0000
  26 H            3.4178    -2.7294     3.6455 H            1    LIG   0.0000
  27 H            1.8932    -4.3881    -1.8268 H            1    LIG   0.0000
@<TRIPOS>BOND
   1        1        2 1
   2        2        3 1
   3        3        4 1
   4        4        5 2
   5        5        6 1
   6        6        2 2
   7        6        7 1
   8        7        8 ar
   9        8        9 ar
  10        9       10 1
  11       10       11 1
  12       11       12 2
  13       12       13 1
  14       13       14 2
  15       14       10 1
  16        9       15 ar
  17       15       16 ar
  18       16       17 ar
  19       17        7 ar
  20        1       18 1
  21        1       19 1
  22        1       20 1
  23        4       21 1
  24        5       22 1
  25        8       23 1
  26       11       24 1
  27       12       25 1
  28       14       26 1
  29       16       27 1

@<TRIPOS>MOLECULE

  27   29
SMALL
USER_CHARGES
@<TRIPOS>ATOM
   1 C1           3.6154     0.8991    -0.0367 C.3          1    LIG   0.0000
   2 C2           2.0973     0.8414    -0.0192 C.2          1    LIG   0.0000
   3 O3           1.2706     1.8550     0.0091 O.2          1    LIG   0.0000
   4 C4           0.0249     1.4328     0.0130 C.2          1    LIG   0.0000
   5 C5           0.0479     0.0720    -0.0052 C.2          1    LIG   0.0000
   6 C6           1.4017    -0.3214    -0.0300 C.2          1    LIG   0.0000
   7 C7           1.9282    -1.6733    -0.0552 C.ar         1    LIG   0.0000
   8 C8           2.7555    -2.1023     0.9776 C.ar         1    LIG   0.0000
   9 C9           3.2544    -3.4004     0.9435 C.ar         1    LIG   0.0000
  10 N10          4.0884    -3.8413     1.9789 N.pl3        1    LIG   0.0000
  11 C11          4.1932    -5.1224     2.4275 C.2          1    LIG   0.0000
  12 C12          5.1065    -5.1097     3.4400 C.2          1    LIG   0.0000
  13 N13          5.5400    -3.8246     3.5880 N.2          1    LIG   0.0000
  14 C14          4.9313    -3.0577     2.7110 C.2          1    LIG   0.0000
  15 N15          2.9238    -4.1994    -0.0822 N.ar         1    LIG   0.0000
  16 C16          2.1250    -3.7738    -1.0726 C.ar         1    LIG   0.0000
  17 N17          1.6373    -2.5239    -1.0511 N.ar         1    LIG   0.0000
  18 H            3.9840    -0.0303    -0.0579 H            1    LIG   0.0000
  19 H            3.9206     1.3973    -0.8483 H            1    LIG   0.0000
  20 H            3.9406     1.3681     0.7844 H            1    LIG   0.0000
  21 H           -0.7926     2.0085     0.0269 H            1    LIG   0.0000
  22 H           -0.7466    -0.5351    -0.0017 H            1    LIG   0.0000
  23 H            2.9876    -1.4880     1.7318 H            1    LIG   0.0000
  24 H            3.6966    -5.9184     2.0816 H            1    LIG   0.0000
  25 H            5.4045    -5.8991     3.9767 H            1    LIG   0.0000
  26 H            5.0630    -2.0727     2.6000 H            1    LIG   0.0000
  27 H            1.8932    -4.3881    -1.8268 H            1    LIG   0.0000
@<TRIPOS>BOND
   1        1        2 1
   2        2        3 1
   3        3        4 1
   4        4        5 2
   5        5        6 1
   6        6        2 2
   7        6        7 1
   8        7        8 ar
   9        8        9 ar
  10        9       10 1
  11       10       11 1
  12       11       12 2
  13       12       13 1
  14       13       14 2
  15       14       10 1
  16        9       15 ar
  17       15       16 ar
  18       16       17 ar
  19       17        7 ar
  20        1       18 1
  21        1       19 1
  22        1       20 1
  23        4       21 1
  24        5       22 1
  25        8       23 1
  26       11       24 1
  27       12       25 1
  28       14       26 1
  29       16       27 1

