@<TRIPOS>MOLECULE
*****
 27 29 0 0 0
SMALL
USER_CHARGES

@<TRIPOS>ATOM
      1 C1          3.6154    0.8991   -0.0367 C.3     1  LIG1        0.0000
      2 C2          2.0973    0.8414   -0.0192 C.2     1  LIG1        0.0000
      3 O3          1.2706    1.8550    0.0091 O.2     1  LIG1        0.0000
      4 C4          0.0249    1.4328    0.0130 C.2     1  LIG1        0.0000
      5 C5          0.0479    0.0720   -0.0052 C.2     1  LIG1        0.0000
      6 C6          1.4017   -0.3214   -0.0300 C.2     1  LIG1        0.0000
      7 C7          1.9282   -1.6733   -0.0552 C.ar    1  LIG1        0.0000
      8 C8          2.1930   -2.3245    1.1452 C.ar    1  LIG1        0.0000
      9 C9          2.6973   -3.6204    1.1093 C.ar    1  LIG1        0.0000
     10 N10         2.9673   -4.2841    2.3130 N.pl3   1  LIG1        0.0000
     11 C11         3.4571   -5.5486    2.4337 C.2     1  LIG1        0.0000
     12 C12         3.5645   -5.8015    3.7693 C.2     1  LIG1        0.0000
     13 N13         3.1398   -4.6890    4.4350 N.2     1  LIG1        0.0000
     14 C14         2.7801   -3.7730    3.5636 C.2     1  LIG1        0.0000
     15 N15         2.9131   -4.2036   -0.0794 N.ar    1  LIG1        0.0000
     16 C16         2.6539   -3.5649   -1.2304 C.ar    1  LIG1        0.0000
     17 N17         2.1671   -2.3147   -1.2092 N.ar    1  LIG1        0.0000
     18 H           3.9840   -0.0303   -0.0579 H       1  LIG1        0.0000
     19 H           3.9206    1.3973   -0.8483 H       1  LIG1        0.0000
     20 H           3.9406    1.3681    0.7844 H       1  LIG1        0.0000
     21 H          -0.7926    2.0085    0.0269 H       1  LIG1        0.0000
     22 H          -0.7466   -0.5351   -0.0017 H       1  LIG1        0.0000
     23 H           2.0236   -1.8687    2.0191 H       1  LIG1        0.0000
     24 H           3.6925   -6.1713    1.6875 H       1  LIG1        0.0000
     25 H           3.8947   -6.6488    4.1854 H       1  LIG1        0.0000
     26 H           2.4306   -2.8613    3.7797 H       1  LIG1        0.0000
     27 H           2.8235   -4.0207   -2.1042 H       1  LIG1        0.0000
@<TRIPOS>BOND
     1     1     2    1
     2     2     3    1
     3     3     4    1
     4     4     5    2
     5     5     6    1
     6     6     2    2
     7     6     7    1
     8     7     8   ar
     9     8     9   ar
    10     9    10    1
    11    10    11    1
    12    11    12    2
    13    12    13    1
    14    13    14    2
    15    14    10    1
    16     9    15   ar
    17    15    16   ar
    18    16    17   ar
    19    17     7   ar
    20     1    18    1
    21     1    19    1
    22     1    20    1
    23     4    21    1
    24     5    22    1
    25     8    23    1
    26    11    24    1
    27    12    25    1
    28    14    26    1
    29    16    27    1
