@<TRIPOS>MOLECULE
*****
 27 29 0 0 0
SMALL
USER_CHARGES

@<TRIPOS>ATOM
      1 C1          3.6154    0.8991   -0.0367 C.3     1  LIG1        0.0000
      2 C2          2.0973    0.8414   -0.0192 C.2     1  LIG1        0.0000
      3 O3          1.2706    1.8550    0.0091 O.2     1  LIG1        0.0000
      4 C4          0.0249    1.4328    0.0130 C.2     1  LIG1        0.0000
      5 C5          0.0479    0.0720   -0.0052 C.2     1  LIG1        0.0000
      6 C6          1.4017   -0.3214   -0.0300 C.2     1  LIG1        0.0000
      7 C7          1.9282   -1.6733   -0.0552 C.ar    1  LIG1        0.0000
      8 C8          3.0299   -1.9614   -0.8541 C.ar    1  LIG1        0.0000
      9 C9          3.5264   -3.2607   -0.8704 C.ar    1  LIG1        0.0000
     10 N10         4.6353   -3.5605   -1.6720 N.pl3   1  LIG1        0.0000
     11 C11         4.8985   -4.7643   -2.2510 C.2     1  LIG1        0.0000
     12 C12         6.0699   -4.6227   -2.9345 C.2     1  LIG1        0.0000
     13 N13         6.4965   -3.3387   -2.7598 N.2     1  LIG1        0.0000
     14 C14         5.6367   -2.6952   -2.0018 C.2     1  LIG1        0.0000
     15 N15         2.9298   -4.1964   -0.1165 N.ar    1  LIG1        0.0000
     16 C16         1.8676   -3.9061    0.6499 C.ar    1  LIG1        0.0000
     17 N17         1.3793   -2.6565    0.6744 N.ar    1  LIG1        0.0000
     18 H           3.9840   -0.0303   -0.0579 H       1  LIG1        0.0000
     19 H           3.9206    1.3973   -0.8483 H       1  LIG1        0.0000
     20 H           3.9406    1.3681    0.7844 H       1  LIG1        0.0000
     21 H          -0.7926    2.0085    0.0269 H       1  LIG1        0.0000
     22 H          -0.7466   -0.5351   -0.0017 H       1  LIG1        0.0000
     23 H           3.4576   -1.2466   -1.4074 H       1  LIG1        0.0000
     24 H           4.3408   -5.5919   -2.1873 H       1  LIG1        0.0000
     25 H           6.5324   -5.3315   -3.4671 H       1  LIG1        0.0000
     26 H           5.7049   -1.7391   -1.7169 H       1  LIG1        0.0000
     27 H           1.4397   -4.6210    1.2029 H       1  LIG1        0.0000
@<TRIPOS>BOND
     1     1     2    1
     2     2     3    1
     3     3     4    1
     4     4     5    2
     5     5     6    1
     6     6     2    2
     7     6     7    1
     8     7     8   ar
     9     8     9   ar
    10     9    10    1
    11    10    11    1
    12    11    12    2
    13    12    13    1
    14    13    14    2
    15    14    10    1
    16     9    15   ar
    17    15    16   ar
    18    16    17   ar
    19    17     7   ar
    20     1    18    1
    21     1    19    1
    22     1    20    1
    23     4    21    1
    24     5    22    1
    25     8    23    1
    26    11    24    1
    27    12    25    1
    28    14    26    1
    29    16    27    1
