@<TRIPOS>MOLECULE

  27   29
SMALL
USER_CHARGES
@<TRIPOS>ATOM
   1 C1           1.0000     1.0000     1.0000 C.3          1    LIG   0.0000
   2 C2           1.8779     1.8779     1.8779 C.ar         1    LIG   0.0000
   3 C3           3.0947     1.3879     2.3412 C.ar         1    LIG   0.0000
   4 C4           3.9018     2.1883     3.1423 C.ar         1    LIG   0.0000
   5 C5           3.4911     3.4742     3.4785 C.ar         1    LIG   0.0000
   6 C6           2.2737     3.9586     3.0142 C.ar         1    LIG   0.0000
   7 C7           1.8492     5.3045     3.3696 C.2          1    LIG   0.0000
   8 C8           0.5500     5.5304     3.8963 C.2          1    LIG   0.0000
   9 N9           0.1736     6.7588     4.2185 N.2          1    LIG   0.0000
  10 C10          0.9922     7.8524     4.0665 C.2          1    LIG   0.0000
  11 N11          0.8305     9.1383     4.3154 N.2          1    LIG   0.0000
  12 C12          1.9683     9.8089     3.9793 C.2          1    LIG   0.0000
  13 C13          2.8515     8.8834     3.5077 C.2          1    LIG   0.0000
  14 N14          2.2360     7.6656     3.5665 N.pl3        1    LIG   0.0000
  15 C15          2.6562     6.4046     3.2226 C.2          1    LIG   0.0000
  16 C16          1.4631     3.1629     2.2119 C.ar         1    LIG   0.0000
  17 F17          0.2976     3.6231     1.7642 F            1    LIG   0.0000
  18 H            1.4463     0.1161     0.8603 H            1    LIG   0.0000
  19 H            0.1161     0.8603     1.4463 H            1    LIG   0.0000
  20 H            0.8603     1.4463     0.1161 H            1    LIG   0.0000
  21 H            3.3879     0.4631     2.0990 H            1    LIG   0.0000
  22 H            4.7774     1.8396     3.4765 H            1    LIG   0.0000
  23 H            4.0715     4.0500     4.0543 H            1    LIG   0.0000
  24 H           -0.0794     4.7638     4.0237 H            1    LIG   0.0000
  25 H            2.1255    10.7929     4.0627 H            1    LIG   0.0000
  26 H            3.7788     9.0630     3.1794 H            1    LIG   0.0000
  27 H            3.5780     6.2842     2.8540 H            1    LIG   0.0000
@<TRIPOS>BOND
   1        1        2 1
   2        2        3 ar
   3        3        4 ar
   4        4        5 ar
   5        5        6 ar
   6        6        7 1
   7        7        8 1
   8        8        9 2
   9        9       10 1
  10       10       11 2
  11       11       12 1
  12       12       13 2
  13       13       14 1
  14       14       10 1
  15       14       15 1
  16       15        7 2
  17        6       16 ar
  18       16        2 ar
  19       16       17 1
  20        1       18 1
  21        1       19 1
  22        1       20 1
  23        3       21 1
  24        4       22 1
  25        5       23 1
  26        8       24 1
  27       12       25 1
  28       13       26 1
  29       15       27 1

@<TRIPOS>MOLECULE

  27   29
SMALL
USER_CHARGES
@<TRIPOS>ATOM
   1 C1           1.0000     1.0000     1.0000 C.3          1    LIG   0.0000
   2 C2           1.8779     1.8779     1.8779 C.ar         1    LIG   0.0000
   3 C3           3.0947     1.3879     2.3412 C.ar         1    LIG   0.0000
   4 C4           3.9018     2.1883     3.1423 C.ar         1    LIG   0.0000
   5 C5           3.4911     3.4742     3.4785 C.ar         1    LIG   0.0000
   6 C6           2.2737     3.9586     3.0142 C.ar         1    LIG   0.0000
   7 C7           1.8492     5.3045     3.3696 C.2          1    LIG   0.0000
   8 C8           0.7635     5.5007     4.2635 C.2          1    LIG   0.0000
   9 N9           0.3858     6.7297     4.5822 N.2          1    LIG   0.0000
  10 C10          1.0026     7.8515     4.0822 C.2          1    LIG   0.0000
  11 N11          0.7992     9.1436     4.2581 N.2          1    LIG   0.0000
  12 C12          1.7024     9.8467     3.5185 C.2          1    LIG   0.0000
  13 C13          2.4821     8.9352     2.8702 C.2          1    LIG   0.0000
  14 N14          2.0405     7.6933     3.2279 N.pl3        1    LIG   0.0000
  15 C15          2.4560     6.4326     2.8774 C.2          1    LIG   0.0000
  16 C16          1.4631     3.1629     2.2119 C.ar         1    LIG   0.0000
  17 F17          0.2976     3.6231     1.7642 F            1    LIG   0.0000
  18 H            1.4463     0.1161     0.8603 H            1    LIG   0.0000
  19 H            0.1161     0.8603     1.4463 H            1    LIG   0.0000
  20 H            0.8603     1.4463     0.1161 H            1    LIG   0.0000
  21 H            3.3879     0.4631     2.0990 H            1    LIG   0.0000
  22 H            4.7774     1.8396     3.4765 H            1    LIG   0.0000
  23 H            4.0715     4.0500     4.0543 H            1    LIG   0.0000
  24 H            0.2851     4.7130     4.6515 H            1    LIG   0.0000
  25 H            1.7789    10.8422     3.4620 H            1    LIG   0.0000
  26 H            3.2379     9.1384     2.2478 H            1    LIG   0.0000
  27 H            3.2240     6.3334     2.2446 H            1    LIG   0.0000
@<TRIPOS>BOND
   1        1        2 1
   2        2        3 ar
   3        3        4 ar
   4        4        5 ar
   5        5        6 ar
   6        6        7 1
   7        7        8 1
   8        8        9 2
   9        9       10 1
  10       10       11 2
  11       11       12 1
  12       12       13 2
  13       13       14 1
  14       14       10 1
  15       14       15 1
  16       15        7 2
  17        6       16 ar
  18       16        2 ar
  19       16       17 1
  20        1       18 1
  21        1       19 1
  22        1       20 1
  23        3       21 1
  24        4       22 1
  25        5       23 1
  26        8       24 1
  27       12       25 1
  28       13       26 1
  29       15       27 1

@<TRIPOS>MOLECULE

  27   29
SMALL
USER_CHARGES
@<TRIPOS>ATOM
   1 C1           1.0000     1.0000     1.0000 C.3          1    LIG   0.0000
   2 C2           1.8779     1.8779     1.8779 C.ar         1    LIG   0.0000
   3 C3           3.0947     1.3879     2.3412 C.ar         1    LIG   0.0000
   4 C4           3.9018     2.1883     3.1423 C.ar         1    LIG   0.0000
   5 C5           3.4911     3.4742     3.4785 C.ar         1    LIG   0.0000
   6 C6           2.2737     3.9586     3.0142 C.ar         1    LIG   0.0000
   7 C7           1.8492     5.3045     3.3696 C.2          1    LIG   0.0000
   8 C8           0.4680     5.6127     3.4867 C.2          1    LIG   0.0000
   9 N9           0.0917     6.8402     3.8124 N.2          1    LIG   0.0000
  10 C10          0.9874     7.8556     4.0484 C.2          1    LIG   0.0000
  11 N11          0.8413     9.1250     4.3786 N.2          1    LIG   0.0000
  12 C12          2.0691     9.7052     4.4926 C.2          1    LIG   0.0000
  13 C13          2.9926     8.7402     4.2184 C.2          1    LIG   0.0000
  14 N14          2.3103     7.5894     3.9437 N.pl3        1    LIG   0.0000
  15 C15          2.7328     6.3271     3.6075 C.2          1    LIG   0.0000
  16 C16          1.4631     3.1629     2.2119 C.ar         1    LIG   0.0000
  17 F17          0.2976     3.6231     1.7642 F            1    LIG   0.0000
  18 H            1.4463     0.1161     0.8603 H            1    LIG   0.0000
  19 H            0.1161     0.8603     1.4463 H            1    LIG   0.0000
  20 H            0.8603     1.4463     0.1161 H            1    LIG   0.0000
  21 H            3.3879     0.4631     2.0990 H            1    LIG   0.0000
  22 H            4.7774     1.8396     3.4765 H            1    LIG   0.0000
  23 H            4.0715     4.0500     4.0543 H            1    LIG   0.0000
  24 H           -0.2191     4.9046     3.3236 H            1    LIG   0.0000
  25 H            2.2572    10.6577     4.7320 H            1    LIG   0.0000
  26 H            3.9861     8.8541     4.2184 H            1    LIG   0.0000
  27 H            3.7138     6.1475     3.5337 H            1    LIG   0.0000
@<TRIPOS>BOND
   1        1        2 1
   2        2        3 ar
   3        3        4 ar
   4        4        5 ar
   5        5        6 ar
   6        6        7 1
   7        7        8 1
   8        8        9 2
   9        9       10 1
  10       10       11 2
  11       11       12 1
  12       12       13 2
  13       13       14 1
  14       14       10 1
  15       14       15 1
  16       15        7 2
  17        6       16 ar
  18       16        2 ar
  19       16       17 1
  20        1       18 1
  21        1       19 1
  22        1       20 1
  23        3       21 1
  24        4       22 1
  25        5       23 1
  26        8       24 1
  27       12       25 1
  28       13       26 1
  29       15       27 1

@<TRIPOS>MOLECULE

  27   29
SMALL
USER_CHARGES
@<TRIPOS>ATOM
   1 C1           1.0000     1.0000     1.0000 C.3          1    LIG   0.0000
   2 C2           1.8779     1.8779     1.8779 C.ar         1    LIG   0.0000
   3 C3           3.0947     1.3879     2.3412 C.ar         1    LIG   0.0000
   4 C4           3.9018     2.1883     3.1423 C.ar         1    LIG   0.0000
   5 C5           3.4911     3.4742     3.4785 C.ar         1    LIG   0.0000
   6 C6           2.2737     3.9586     3.0142 C.ar         1    LIG   0.0000
   7 C7           1.8492     5.3045     3.3696 C.2          1    LIG   0.0000
   8 C8           1.4041     6.2041     2.3650 C.2          1    LIG   0.0000
   9 N9           1.0180     7.4264     2.6989 N.2          1    LIG   0.0000
  10 C10          1.0255     7.8816     3.9956 C.2          1    LIG   0.0000
  11 N11          0.6921     9.0337     4.5464 N.2          1    LIG   0.0000
  12 C12          0.8912     8.9640     5.8927 C.2          1    LIG   0.0000
  13 C13          1.3655     7.7141     6.1609 C.2          1    LIG   0.0000
  14 N14          1.4452     7.0447     4.9732 N.pl3        1    LIG   0.0000
  15 C15          1.8521     5.7714     4.6599 C.2          1    LIG   0.0000
  16 C16          1.4631     3.1629     2.2119 C.ar         1    LIG   0.0000
  17 F17          0.2976     3.6231     1.7642 F            1    LIG   0.0000
  18 H            1.4463     0.1161     0.8603 H            1    LIG   0.0000
  19 H            0.1161     0.8603     1.4463 H            1    LIG   0.0000
  20 H            0.8603     1.4463     0.1161 H            1    LIG   0.0000
  21 H            3.3879     0.4631     2.0990 H            1    LIG   0.0000
  22 H            4.7774     1.8396     3.4765 H            1    LIG   0.0000
  23 H            4.0715     4.0500     4.0543 H            1    LIG   0.0000
  24 H            1.3822     5.9155     1.4078 H            1    LIG   0.0000
  25 H            0.7218     9.6914     6.5577 H            1    LIG   0.0000
  26 H            1.6098     7.3539     7.0613 H            1    LIG   0.0000
  27 H            2.1597     5.1661     5.3940 H            1    LIG   0.0000
@<TRIPOS>BOND
   1        1        2 1
   2        2        3 ar
   3        3        4 ar
   4        4        5 ar
   5        5        6 ar
   6        6        7 1
   7        7        8 1
   8        8        9 2
   9        9       10 1
  10       10       11 2
  11       11       12 1
  12       12       13 2
  13       13       14 1
  14       14       10 1
  15       14       15 1
  16       15        7 2
  17        6       16 ar
  18       16        2 ar
  19       16       17 1
  20        1       18 1
  21        1       19 1
  22        1       20 1
  23        3       21 1
  24        4       22 1
  25        5       23 1
  26        8       24 1
  27       12       25 1
  28       13       26 1
  29       15       27 1

@<TRIPOS>MOLECULE

  27   29
SMALL
USER_CHARGES
@<TRIPOS>ATOM
   1 C1           1.0000     1.0000     1.0000 C.3          1    LIG   0.0000
   2 C2           1.8779     1.8779     1.8779 C.ar         1    LIG   0.0000
   3 C3           3.0947     1.3879     2.3412 C.ar         1    LIG   0.0000
   4 C4           3.9018     2.1883     3.1423 C.ar         1    LIG   0.0000
   5 C5           3.4911     3.4742     3.4785 C.ar         1    LIG   0.0000
   6 C6           2.2737     3.9586     3.0142 C.ar         1    LIG   0.0000
   7 C7           1.8492     5.3045     3.3696 C.2          1    LIG   0.0000
   8 C8           1.0255     6.0524     2.4872 C.2          1    LIG   0.0000
   9 N9           0.6429     7.2759     2.8206 N.2          1    LIG   0.0000
  10 C10          1.0091     7.8747     4.0022 C.2          1    LIG   0.0000
  11 N11          0.7509     9.0567     4.5294 N.2          1    LIG   0.0000
  12 C12          1.3662     9.1537     5.7415 C.2          1    LIG   0.0000
  13 C13          2.0226     7.9770     5.9502 C.2          1    LIG   0.0000
  14 N14          1.7941     7.1842     4.8619 N.pl3        1    LIG   0.0000
  15 C15          2.2079     5.9138     4.5456 C.2          1    LIG   0.0000
  16 C16          1.4631     3.1629     2.2119 C.ar         1    LIG   0.0000
  17 F17          0.2976     3.6231     1.7642 F            1    LIG   0.0000
  18 H            1.4463     0.1161     0.8603 H            1    LIG   0.0000
  19 H            0.1161     0.8603     1.4463 H            1    LIG   0.0000
  20 H            0.8603     1.4463     0.1161 H            1    LIG   0.0000
  21 H            3.3879     0.4631     2.0990 H            1    LIG   0.0000
  22 H            4.7774     1.8396     3.4765 H            1    LIG   0.0000
  23 H            4.0715     4.0500     4.0543 H            1    LIG   0.0000
  24 H            0.7349     5.6564     1.6162 H            1    LIG   0.0000
  25 H            1.3409     9.9387     6.3604 H            1    LIG   0.0000
  26 H            2.5704     7.7385     6.7521 H            1    LIG   0.0000
  27 H            2.7881     5.4178     5.1916 H            1    LIG   0.0000
@<TRIPOS>BOND
   1        1        2 1
   2        2        3 ar
   3        3        4 ar
   4        4        5 ar
   5        5        6 ar
   6        6        7 1
   7        7        8 1
   8        8        9 2
   9        9       10 1
  10       10       11 2
  11       11       12 1
  12       12       13 2
  13       13       14 1
  14       14       10 1
  15       14       15 1
  16       15        7 2
  17        6       16 ar
  18       16        2 ar
  19       16       17 1
  20        1       18 1
  21        1       19 1
  22        1       20 1
  23        3       21 1
  24        4       22 1
  25        5       23 1
  26        8       24 1
  27       12       25 1
  28       13       26 1
  29       15       27 1

@<TRIPOS>MOLECULE

  27   29
SMALL
USER_CHARGES
@<TRIPOS>ATOM
   1 C1           1.0000     1.0000     1.0000 C.3          1    LIG   0.0000
   2 C2           1.8779     1.8779     1.8779 C.ar         1    LIG   0.0000
   3 C3           3.0947     1.3879     2.3412 C.ar         1    LIG   0.0000
   4 C4           3.9018     2.1883     3.1423 C.ar         1    LIG   0.0000
   5 C5           3.4911     3.4742     3.4785 C.ar         1    LIG   0.0000
   6 C6           2.2737     3.9586     3.0142 C.ar         1    LIG   0.0000
   7 C7           1.8492     5.3045     3.3696 C.2          1    LIG   0.0000
   8 C8           1.8112     6.3272     2.3851 C.2          1    LIG   0.0000
   9 N9           1.4216     7.5486     2.7182 N.2          1    LIG   0.0000
  10 C10          1.0436     7.8874     3.9954 C.2          1    LIG   0.0000
  11 N11          0.6294     9.0152     4.5414 N.2          1    LIG   0.0000
  12 C12          0.3813     8.8102     5.8657 C.2          1    LIG   0.0000
  13 C13          0.6593     7.5008     6.1249 C.2          1    LIG   0.0000
  14 N14          1.0704     6.9317     4.9535 N.pl3        1    LIG   0.0000
  15 C15          1.4696     5.6559     4.6405 C.2          1    LIG   0.0000
  16 C16          1.4631     3.1629     2.2119 C.ar         1    LIG   0.0000
  17 F17          0.2976     3.6231     1.7642 F            1    LIG   0.0000
  18 H            1.4463     0.1161     0.8603 H            1    LIG   0.0000
  19 H            0.1161     0.8603     1.4463 H            1    LIG   0.0000
  20 H            0.8603     1.4463     0.1161 H            1    LIG   0.0000
  21 H            3.3879     0.4631     2.0990 H            1    LIG   0.0000
  22 H            4.7774     1.8396     3.4765 H            1    LIG   0.0000
  23 H            4.0715     4.0500     4.0543 H            1    LIG   0.0000
  24 H            2.0780     6.1258     1.4427 H            1    LIG   0.0000
  25 H            0.0569     9.4909     6.5225 H            1    LIG   0.0000
  26 H            0.5773     7.0419     7.0096 H            1    LIG   0.0000
  27 H            1.4843     4.9620     5.3604 H            1    LIG   0.0000
@<TRIPOS>BOND
   1        1        2 1
   2        2        3 ar
   3        3        4 ar
   4        4        5 ar
   5        5        6 ar
   6        6        7 1
   7        7        8 1
   8        8        9 2
   9        9       10 1
  10       10       11 2
  11       11       12 1
  12       12       13 2
  13       13       14 1
  14       14       10 1
  15       14       15 1
  16       15        7 2
  17        6       16 ar
  18       16        2 ar
  19       16       17 1
  20        1       18 1
  21        1       19 1
  22        1       20 1
  23        3       21 1
  24        4       22 1
  25        5       23 1
  26        8       24 1
  27       12       25 1
  28       13       26 1
  29       15       27 1

@<TRIPOS>MOLECULE

  27   29
SMALL
USER_CHARGES
@<TRIPOS>ATOM
   1 C1           1.0000     1.0000     1.0000 C.3          1    LIG   0.0000
   2 C2           1.8779     1.8779     1.8779 C.ar         1    LIG   0.0000
   3 C3           3.0947     1.3879     2.3412 C.ar         1    LIG   0.0000
   4 C4           3.9018     2.1883     3.1423 C.ar         1    LIG   0.0000
   5 C5           3.4911     3.4742     3.4785 C.ar         1    LIG   0.0000
   6 C6           2.2737     3.9586     3.0142 C.ar         1    LIG   0.0000
   7 C7           1.8492     5.3045     3.3696 C.2          1    LIG   0.0000
   8 C8           2.7305     6.4039     3.1928 C.2          1    LIG   0.0000
   9 N9           2.3341     7.6253     3.5175 N.2          1    LIG   0.0000
  10 C10          1.0865     7.8921     4.0287 C.2          1    LIG   0.0000
  11 N11          0.4914     9.0055     4.4133 N.2          1    LIG   0.0000
  12 C12         -0.7667     8.7163     4.8501 C.2          1    LIG   0.0000
  13 C13         -0.9331     7.3691     4.7216 C.2          1    LIG   0.0000
  14 N14          0.2263     6.8624     4.2075 N.pl3        1    LIG   0.0000
  15 C15          0.6070     5.5844     3.8809 C.2          1    LIG   0.0000
  16 C16          1.4631     3.1629     2.2119 C.ar         1    LIG   0.0000
  17 F17          0.2976     3.6231     1.7642 F            1    LIG   0.0000
  18 H            1.4463     0.1161     0.8603 H            1    LIG   0.0000
  19 H            0.1161     0.8603     1.4463 H            1    LIG   0.0000
  20 H            0.8603     1.4463     0.1161 H            1    LIG   0.0000
  21 H            3.3879     0.4631     2.0990 H            1    LIG   0.0000
  22 H            4.7774     1.8396     3.4765 H            1    LIG   0.0000
  23 H            4.0715     4.0500     4.0543 H            1    LIG   0.0000
  24 H            3.6482     6.2563     2.8240 H            1    LIG   0.0000
  25 H           -1.4400     9.3683     5.1987 H            1    LIG   0.0000
  26 H           -1.7527     6.8482     4.9598 H            1    LIG   0.0000
  27 H           -0.0404     4.8350     4.0198 H            1    LIG   0.0000
@<TRIPOS>BOND
   1        1        2 1
   2        2        3 ar
   3        3        4 ar
   4        4        5 ar
   5        5        6 ar
   6        6        7 1
   7        7        8 1
   8        8        9 2
   9        9       10 1
  10       10       11 2
  11       11       12 1
  12       12       13 2
  13       13       14 1
  14       14       10 1
  15       14       15 1
  16       15        7 2
  17        6       16 ar
  18       16        2 ar
  19       16       17 1
  20        1       18 1
  21        1       19 1
  22        1       20 1
  23        3       21 1
  24        4       22 1
  25        5       23 1
  26        8       24 1
  27       12       25 1
  28       13       26 1
  29       15       27 1

@<TRIPOS>MOLECULE

  27   29
SMALL
USER_CHARGES
@<TRIPOS>ATOM
   1 C1           1.0000     1.0000     1.0000 C.3          1    LIG   0.0000
   2 C2           1.8779     1.8779     1.8779 C.ar         1    LIG   0.0000
   3 C3           3.0947     1.3879     2.3412 C.ar         1    LIG   0.0000
   4 C4           3.9018     2.1883     3.1423 C.ar         1    LIG   0.0000
   5 C5           3.4911     3.4742     3.4785 C.ar         1    LIG   0.0000
   6 C6           2.2737     3.9586     3.0142 C.ar         1    LIG   0.0000
   7 C7           1.8492     5.3045     3.3696 C.2          1    LIG   0.0000
   8 C8           2.5170     6.4335     2.8256 C.2          1    LIG   0.0000
   9 N9           2.1219     7.6545     3.1538 N.2          1    LIG   0.0000
  10 C10          1.0760     7.8929     4.0129 C.2          1    LIG   0.0000
  11 N11          0.5226     9.0002     4.4706 N.2          1    LIG   0.0000
  12 C12         -0.5009     8.6785     5.3109 C.2          1    LIG   0.0000
  13 C13         -0.5637     7.3173     5.3591 C.2          1    LIG   0.0000
  14 N14          0.4218     6.8347     4.5461 N.pl3        1    LIG   0.0000
  15 C15          0.8071     5.5564     4.2261 C.2          1    LIG   0.0000
  16 C16          1.4631     3.1629     2.2119 C.ar         1    LIG   0.0000
  17 F17          0.2976     3.6231     1.7642 F            1    LIG   0.0000
  18 H            1.4463     0.1161     0.8603 H            1    LIG   0.0000
  19 H            0.1161     0.8603     1.4463 H            1    LIG   0.0000
  20 H            0.8603     1.4463     0.1161 H            1    LIG   0.0000
  21 H            3.3879     0.4631     2.0990 H            1    LIG   0.0000
  22 H            4.7774     1.8396     3.4765 H            1    LIG   0.0000
  23 H            4.0715     4.0500     4.0543 H            1    LIG   0.0000
  24 H            3.2837     6.3071     2.1962 H            1    LIG   0.0000
  25 H           -1.0934     9.3190     5.7994 H            1    LIG   0.0000
  26 H           -1.2119     6.7728     5.8914 H            1    LIG   0.0000
  27 H            0.3136     4.7858     4.6292 H            1    LIG   0.0000
@<TRIPOS>BOND
   1        1        2 1
   2        2        3 ar
   3        3        4 ar
   4        4        5 ar
   5        5        6 ar
   6        6        7 1
   7        7        8 1
   8        8        9 2
   9        9       10 1
  10       10       11 2
  11       11       12 1
  12       12       13 2
  13       13       14 1
  14       14       10 1
  15       14       15 1
  16       15        7 2
  17        6       16 ar
  18       16        2 ar
  19       16       17 1
  20        1       18 1
  21        1       19 1
  22        1       20 1
  23        3       21 1
  24        4       22 1
  25        5       23 1
  26        8       24 1
  27       12       25 1
  28       13       26 1
  29       15       27 1

@<TRIPOS>MOLECULE

  27   29
SMALL
USER_CHARGES
@<TRIPOS>ATOM
   1 C1           1.0000     1.0000     1.0000 C.3          1    LIG   0.0000
   2 C2           1.8779     1.8779     1.8779 C.ar         1    LIG   0.0000
   3 C3           3.0947     1.3879     2.3412 C.ar         1    LIG   0.0000
   4 C4           3.9018     2.1883     3.1423 C.ar         1    LIG   0.0000
   5 C5           3.4911     3.4742     3.4785 C.ar         1    LIG   0.0000
   6 C6           2.2737     3.9586     3.0142 C.ar         1    LIG   0.0000
   7 C7           1.8492     5.3045     3.3696 C.2          1    LIG   0.0000
   8 C8           2.8124     6.3216     3.6024 C.2          1    LIG   0.0000
   9 N9           2.4160     7.5439     3.9235 N.2          1    LIG   0.0000
  10 C10          1.0913     7.8888     4.0467 C.2          1    LIG   0.0000
  11 N11          0.4806     9.0188     4.3501 N.2          1    LIG   0.0000
  12 C12         -0.8676     8.8200     4.3368 C.2          1    LIG   0.0000
  13 C13         -1.0742     7.5123     4.0109 C.2          1    LIG   0.0000
  14 N14          0.1520     6.9386     3.8303 N.pl3        1    LIG   0.0000
  15 C15          0.5304     5.6619     3.4961 C.2          1    LIG   0.0000
  16 C16          1.4631     3.1629     2.2119 C.ar         1    LIG   0.0000
  17 F17          0.2976     3.6231     1.7642 F            1    LIG   0.0000
  18 H            1.4463     0.1161     0.8603 H            1    LIG   0.0000
  19 H            0.1161     0.8603     1.4463 H            1    LIG   0.0000
  20 H            0.8603     1.4463     0.1161 H            1    LIG   0.0000
  21 H            3.3879     0.4631     2.0990 H            1    LIG   0.0000
  22 H            4.7774     1.8396     3.4765 H            1    LIG   0.0000
  23 H            4.0715     4.0500     4.0543 H            1    LIG   0.0000
  24 H            3.7878     6.1155     3.5241 H            1    LIG   0.0000
  25 H           -1.5717     9.5035     4.5295 H            1    LIG   0.0000
  26 H           -1.9600     7.0572     3.9208 H            1    LIG   0.0000
  27 H           -0.1762     4.9717     3.3401 H            1    LIG   0.0000
@<TRIPOS>BOND
   1        1        2 1
   2        2        3 ar
   3        3        4 ar
   4        4        5 ar
   5        5        6 ar
   6        6        7 1
   7        7        8 1
   8        8        9 2
   9        9       10 1
  10       10       11 2
  11       11       12 1
  12       12       13 2
  13       13       14 1
  14       14       10 1
  15       14       15 1
  16       15        7 2
  17        6       16 ar
  18       16        2 ar
  19       16       17 1
  20        1       18 1
  21        1       19 1
  22        1       20 1
  23        3       21 1
  24        4       22 1
  25        5       23 1
  26        8       24 1
  27       12       25 1
  28       13       26 1
  29       15       27 1

@<TRIPOS>MOLECULE

  27   29
SMALL
USER_CHARGES
@<TRIPOS>ATOM
   1 C1           1.0000     1.0000     1.0000 C.3          1    LIG   0.0000
   2 C2           1.8779     1.8779     1.8779 C.ar         1    LIG   0.0000
   3 C3           3.0947     1.3879     2.3412 C.ar         1    LIG   0.0000
   4 C4           3.9018     2.1883     3.1423 C.ar         1    LIG   0.0000
   5 C5           3.4911     3.4742     3.4785 C.ar         1    LIG   0.0000
   6 C6           2.2737     3.9586     3.0142 C.ar         1    LIG   0.0000
   7 C7           1.8492     5.3045     3.3696 C.2          1    LIG   0.0000
   8 C8           1.8763     5.7301     4.7240 C.2          1    LIG   0.0000
   9 N9           1.4897     6.9577     5.0371 N.2          1    LIG   0.0000
  10 C10          1.0531     7.8629     4.0995 C.2          1    LIG   0.0000
  11 N11          0.6298     9.1101     4.1824 N.2          1    LIG   0.0000
  12 C12          0.3103     9.5613     2.9367 C.2          1    LIG   0.0000
  13 C13          0.5529     8.5384     2.0684 C.2          1    LIG   0.0000
  14 N14          1.0172     7.4833     2.8008 N.pl3        1    LIG   0.0000
  15 C15          1.4111     6.2175     2.4436 C.2          1    LIG   0.0000
  16 C16          1.4631     3.1629     2.2119 C.ar         1    LIG   0.0000
  17 F17          0.2976     3.6231     1.7642 F            1    LIG   0.0000
  18 H            1.4463     0.1161     0.8603 H            1    LIG   0.0000
  19 H            0.1161     0.8603     1.4463 H            1    LIG   0.0000
  20 H            0.8603     1.4463     0.1161 H            1    LIG   0.0000
  21 H            3.3879     0.4631     2.0990 H            1    LIG   0.0000
  22 H            4.7774     1.8396     3.4765 H            1    LIG   0.0000
  23 H            4.0715     4.0500     4.0543 H            1    LIG   0.0000
  24 H            2.1866     5.1046     5.4398 H            1    LIG   0.0000
  25 H           -0.0363    10.4699     2.7038 H            1    LIG   0.0000
  26 H            0.4162     8.5573     1.0779 H            1    LIG   0.0000
  27 H            1.3778     5.9531     1.4798 H            1    LIG   0.0000
@<TRIPOS>BOND
   1        1        2 1
   2        2        3 ar
   3        3        4 ar
   4        4        5 ar
   5        5        6 ar
   6        6        7 1
   7        7        8 1
   8        8        9 2
   9        9       10 1
  10       10       11 2
  11       11       12 1
  12       12       13 2
  13       13       14 1
  14       14       10 1
  15       14       15 1
  16       15        7 2
  17        6       16 ar
  18       16        2 ar
  19       16       17 1
  20        1       18 1
  21        1       19 1
  22        1       20 1
  23        3       21 1
  24        4       22 1
  25        5       23 1
  26        8       24 1
  27       12       25 1
  28       13       26 1
  29       15       27 1

@<TRIPOS>MOLECULE

  27   29
SMALL
USER_CHARGES
@<TRIPOS>ATOM
   1 C1           1.0000     1.0000     1.0000 C.3          1    LIG   0.0000
   2 C2           1.8779     1.8779     1.8779 C.ar         1    LIG   0.0000
   3 C3           3.0947     1.3879     2.3412 C.ar         1    LIG   0.0000
   4 C4           3.9018     2.1883     3.1423 C.ar         1    LIG   0.0000
   5 C5           3.4911     3.4742     3.4785 C.ar         1    LIG   0.0000
   6 C6           2.2737     3.9586     3.0142 C.ar         1    LIG   0.0000
   7 C7           1.8492     5.3045     3.3696 C.2          1    LIG   0.0000
   8 C8           2.2549     5.8818     4.6019 C.2          1    LIG   0.0000
   9 N9           1.8648     7.1082     4.9154 N.2          1    LIG   0.0000
  10 C10          1.0695     7.8698     4.0930 C.2          1    LIG   0.0000
  11 N11          0.5709     9.0871     4.1994 N.2          1    LIG   0.0000
  12 C12         -0.1646     9.3715     3.0879 C.2          1    LIG   0.0000
  13 C13         -0.1043     8.2755     2.2792 C.2          1    LIG   0.0000
  14 N14          0.6682     7.3439     2.9121 N.pl3        1    LIG   0.0000
  15 C15          1.0553     6.0751     2.5579 C.2          1    LIG   0.0000
  16 C16          1.4631     3.1629     2.2119 C.ar         1    LIG   0.0000
  17 F17          0.2976     3.6231     1.7642 F            1    LIG   0.0000
  18 H            1.4463     0.1161     0.8603 H            1    LIG   0.0000
  19 H            0.1161     0.8603     1.4463 H            1    LIG   0.0000
  20 H            0.8603     1.4463     0.1161 H            1    LIG   0.0000
  21 H            3.3879     0.4631     2.0990 H            1    LIG   0.0000
  22 H            4.7774     1.8396     3.4765 H            1    LIG   0.0000
  23 H            4.0715     4.0500     4.0543 H            1    LIG   0.0000
  24 H            2.8338     5.3637     5.2315 H            1    LIG   0.0000
  25 H           -0.6554    10.2225     2.9010 H            1    LIG   0.0000
  26 H           -0.5444     8.1727     1.3871 H            1    LIG   0.0000
  27 H            0.7494     5.7014     1.6822 H            1    LIG   0.0000
@<TRIPOS>BOND
   1        1        2 1
   2        2        3 ar
   3        3        4 ar
   4        4        5 ar
   5        5        6 ar
   6        6        7 1
   7        7        8 1
   8        8        9 2
   9        9       10 1
  10       10       11 2
  11       11       12 1
  12       12       13 2
  13       13       14 1
  14       14       10 1
  15       14       15 1
  16       15        7 2
  17        6       16 ar
  18       16        2 ar
  19       16       17 1
  20        1       18 1
  21        1       19 1
  22        1       20 1
  23        3       21 1
  24        4       22 1
  25        5       23 1
  26        8       24 1
  27       12       25 1
  28       13       26 1
  29       15       27 1

@<TRIPOS>MOLECULE

  27   29
SMALL
USER_CHARGES
@<TRIPOS>ATOM
   1 C1           1.0000     1.0000     1.0000 C.3          1    LIG   0.0000
   2 C2           1.8779     1.8779     1.8779 C.ar         1    LIG   0.0000
   3 C3           3.0947     1.3879     2.3412 C.ar         1    LIG   0.0000
   4 C4           3.9018     2.1883     3.1423 C.ar         1    LIG   0.0000
   5 C5           3.4911     3.4742     3.4785 C.ar         1    LIG   0.0000
   6 C6           2.2737     3.9586     3.0142 C.ar         1    LIG   0.0000
   7 C7           1.8492     5.3045     3.3696 C.2          1    LIG   0.0000
   8 C8           1.4692     5.6070     4.7039 C.2          1    LIG   0.0000
   9 N9           1.0861     6.8355     5.0178 N.2          1    LIG   0.0000
  10 C10          1.0351     7.8571     4.0998 C.2          1    LIG   0.0000
  11 N11          0.6924     9.1286     4.1873 N.2          1    LIG   0.0000
  12 C12          0.8203     9.7150     2.9638 C.2          1    LIG   0.0000
  13 C13          1.2591     8.7516     2.1044 C.2          1    LIG   0.0000
  14 N14          1.3919     7.5963     2.8205 N.pl3        1    LIG   0.0000
  15 C15          1.7935     6.3331     2.4630 C.2          1    LIG   0.0000
  16 C16          1.4631     3.1629     2.2119 C.ar         1    LIG   0.0000
  17 F17          0.2976     3.6231     1.7642 F            1    LIG   0.0000
  18 H            1.4463     0.1161     0.8603 H            1    LIG   0.0000
  19 H            0.1161     0.8603     1.4463 H            1    LIG   0.0000
  20 H            0.8603     1.4463     0.1161 H            1    LIG   0.0000
  21 H            3.3879     0.4631     2.0990 H            1    LIG   0.0000
  22 H            4.7774     1.8396     3.4765 H            1    LIG   0.0000
  23 H            4.0715     4.0500     4.0543 H            1    LIG   0.0000
  24 H            1.4908     4.8943     5.4050 H            1    LIG   0.0000
  25 H            0.6286    10.6703     2.7389 H            1    LIG   0.0000
  26 H            1.4487     8.8694     1.1296 H            1    LIG   0.0000
  27 H            2.0533     6.1572     1.5134 H            1    LIG   0.0000
@<TRIPOS>BOND
   1        1        2 1
   2        2        3 ar
   3        3        4 ar
   4        4        5 ar
   5        5        6 ar
   6        6        7 1
   7        7        8 1
   8        8        9 2
   9        9       10 1
  10       10       11 2
  11       11       12 1
  12       12       13 2
  13       13       14 1
  14       14       10 1
  15       14       15 1
  16       15        7 2
  17        6       16 ar
  18       16        2 ar
  19       16       17 1
  20        1       18 1
  21        1       19 1
  22        1       20 1
  23        3       21 1
  24        4       22 1
  25        5       23 1
  26        8       24 1
  27       12       25 1
  28       13       26 1
  29       15       27 1

