@<TRIPOS>MOLECULE
*****
 27 29 0 0 0
SMALL
USER_CHARGES

@<TRIPOS>ATOM
      1 C1          1.0000    1.0000    1.0000 C.3     1  LIG1        0.0000
      2 C2          1.8779    1.8779    1.8779 C.ar    1  LIG1        0.0000
      3 C3          3.0947    1.3879    2.3412 C.ar    1  LIG1        0.0000
      4 C4          3.9018    2.1883    3.1423 C.ar    1  LIG1        0.0000
      5 C5          3.4911    3.4742    3.4785 C.ar    1  LIG1        0.0000
      6 C6          2.2737    3.9586    3.0142 C.ar    1  LIG1        0.0000
      7 C7          1.8492    5.3045    3.3696 C.2     1  LIG1        0.0000
      8 C8          1.8763    5.7301    4.7240 C.2     1  LIG1        0.0000
      9 N9          1.4897    6.9577    5.0371 N.2     1  LIG1        0.0000
     10 C10         1.0531    7.8629    4.0995 C.2     1  LIG1        0.0000
     11 N11         0.6298    9.1101    4.1824 N.2     1  LIG1        0.0000
     12 C12         0.3103    9.5613    2.9367 C.2     1  LIG1        0.0000
     13 C13         0.5529    8.5384    2.0684 C.2     1  LIG1        0.0000
     14 N14         1.0172    7.4833    2.8008 N.pl3   1  LIG1        0.0000
     15 C15         1.4111    6.2175    2.4436 C.2     1  LIG1        0.0000
     16 C16         1.4631    3.1629    2.2119 C.ar    1  LIG1        0.0000
     17 F17         0.2976    3.6231    1.7642 F       1  LIG1        0.0000
     18 H           1.4463    0.1161    0.8603 H       1  LIG1        0.0000
     19 H           0.1161    0.8603    1.4463 H       1  LIG1        0.0000
     20 H           0.8603    1.4463    0.1161 H       1  LIG1        0.0000
     21 H           3.3879    0.4631    2.0990 H       1  LIG1        0.0000
     22 H           4.7774    1.8396    3.4765 H       1  LIG1        0.0000
     23 H           4.0715    4.0500    4.0543 H       1  LIG1        0.0000
     24 H           2.1866    5.1046    5.4398 H       1  LIG1        0.0000
     25 H          -0.0363   10.4699    2.7038 H       1  LIG1        0.0000
     26 H           0.4162    8.5573    1.0779 H       1  LIG1        0.0000
     27 H           1.3778    5.9531    1.4798 H       1  LIG1        0.0000
@<TRIPOS>BOND
     1     1     2    1
     2     2     3   ar
     3     3     4   ar
     4     4     5   ar
     5     5     6   ar
     6     6     7    1
     7     7     8    1
     8     8     9    2
     9     9    10    1
    10    10    11    2
    11    11    12    1
    12    12    13    2
    13    13    14    1
    14    14    10    1
    15    14    15    1
    16    15     7    2
    17     6    16   ar
    18    16     2   ar
    19    16    17    1
    20     1    18    1
    21     1    19    1
    22     1    20    1
    23     3    21    1
    24     4    22    1
    25     5    23    1
    26     8    24    1
    27    12    25    1
    28    13    26    1
    29    15    27    1
