@<TRIPOS>MOLECULE
*****
 27 29 0 0 0
SMALL
USER_CHARGES

@<TRIPOS>ATOM
      1 C1          1.0000    1.0000    1.0000 C.3     1  LIG1        0.0000
      2 C2          1.8779    1.8779    1.8779 C.ar    1  LIG1        0.0000
      3 C3          3.0947    1.3879    2.3412 C.ar    1  LIG1        0.0000
      4 C4          3.9018    2.1883    3.1423 C.ar    1  LIG1        0.0000
      5 C5          3.4911    3.4742    3.4785 C.ar    1  LIG1        0.0000
      6 C6          2.2737    3.9586    3.0142 C.ar    1  LIG1        0.0000
      7 C7          1.8492    5.3045    3.3696 C.2     1  LIG1        0.0000
      8 C8          2.2549    5.8818    4.6019 C.2     1  LIG1        0.0000
      9 N9          1.8648    7.1082    4.9154 N.2     1  LIG1        0.0000
     10 C10         1.0695    7.8698    4.0930 C.2     1  LIG1        0.0000
     11 N11         0.5709    9.0871    4.1994 N.2     1  LIG1        0.0000
     12 C12        -0.1646    9.3715    3.0879 C.2     1  LIG1        0.0000
     13 C13        -0.1043    8.2755    2.2792 C.2     1  LIG1        0.0000
     14 N14         0.6682    7.3439    2.9121 N.pl3   1  LIG1        0.0000
     15 C15         1.0553    6.0751    2.5579 C.2     1  LIG1        0.0000
     16 C16         1.4631    3.1629    2.2119 C.ar    1  LIG1        0.0000
     17 F17         0.2976    3.6231    1.7642 F       1  LIG1        0.0000
     18 H           1.4463    0.1161    0.8603 H       1  LIG1        0.0000
     19 H           0.1161    0.8603    1.4463 H       1  LIG1        0.0000
     20 H           0.8603    1.4463    0.1161 H       1  LIG1        0.0000
     21 H           3.3879    0.4631    2.0990 H       1  LIG1        0.0000
     22 H           4.7774    1.8396    3.4765 H       1  LIG1        0.0000
     23 H           4.0715    4.0500    4.0543 H       1  LIG1        0.0000
     24 H           2.8338    5.3637    5.2315 H       1  LIG1        0.0000
     25 H          -0.6554   10.2225    2.9010 H       1  LIG1        0.0000
     26 H          -0.5444    8.1727    1.3871 H       1  LIG1        0.0000
     27 H           0.7494    5.7014    1.6822 H       1  LIG1        0.0000
@<TRIPOS>BOND
     1     1     2    1
     2     2     3   ar
     3     3     4   ar
     4     4     5   ar
     5     5     6   ar
     6     6     7    1
     7     7     8    1
     8     8     9    2
     9     9    10    1
    10    10    11    2
    11    11    12    1
    12    12    13    2
    13    13    14    1
    14    14    10    1
    15    14    15    1
    16    15     7    2
    17     6    16   ar
    18    16     2   ar
    19    16    17    1
    20     1    18    1
    21     1    19    1
    22     1    20    1
    23     3    21    1
    24     4    22    1
    25     5    23    1
    26     8    24    1
    27    12    25    1
    28    13    26    1
    29    15    27    1
