@<TRIPOS>MOLECULE
*****
 27 29 0 0 0
SMALL
USER_CHARGES

@<TRIPOS>ATOM
      1 C1          1.0000    1.0000    1.0000 C.3     1  LIG1        0.0000
      2 C2          1.8779    1.8779    1.8779 C.ar    1  LIG1        0.0000
      3 C3          3.0947    1.3879    2.3412 C.ar    1  LIG1        0.0000
      4 C4          3.9018    2.1883    3.1423 C.ar    1  LIG1        0.0000
      5 C5          3.4911    3.4742    3.4785 C.ar    1  LIG1        0.0000
      6 C6          2.2737    3.9586    3.0142 C.ar    1  LIG1        0.0000
      7 C7          1.8492    5.3045    3.3696 C.2     1  LIG1        0.0000
      8 C8          1.0255    6.0524    2.4872 C.2     1  LIG1        0.0000
      9 N9          0.6429    7.2759    2.8206 N.2     1  LIG1        0.0000
     10 C10         1.0091    7.8747    4.0022 C.2     1  LIG1        0.0000
     11 N11         0.7509    9.0567    4.5294 N.2     1  LIG1        0.0000
     12 C12         1.3662    9.1537    5.7415 C.2     1  LIG1        0.0000
     13 C13         2.0226    7.9770    5.9502 C.2     1  LIG1        0.0000
     14 N14         1.7941    7.1842    4.8619 N.pl3   1  LIG1        0.0000
     15 C15         2.2079    5.9138    4.5456 C.2     1  LIG1        0.0000
     16 C16         1.4631    3.1629    2.2119 C.ar    1  LIG1        0.0000
     17 F17         0.2976    3.6231    1.7642 F       1  LIG1        0.0000
     18 H           1.4463    0.1161    0.8603 H       1  LIG1        0.0000
     19 H           0.1161    0.8603    1.4463 H       1  LIG1        0.0000
     20 H           0.8603    1.4463    0.1161 H       1  LIG1        0.0000
     21 H           3.3879    0.4631    2.0990 H       1  LIG1        0.0000
     22 H           4.7774    1.8396    3.4765 H       1  LIG1        0.0000
     23 H           4.0715    4.0500    4.0543 H       1  LIG1        0.0000
     24 H           0.7349    5.6564    1.6162 H       1  LIG1        0.0000
     25 H           1.3409    9.9387    6.3604 H       1  LIG1        0.0000
     26 H           2.5704    7.7385    6.7521 H       1  LIG1        0.0000
     27 H           2.7881    5.4178    5.1916 H       1  LIG1        0.0000
@<TRIPOS>BOND
     1     1     2    1
     2     2     3   ar
     3     3     4   ar
     4     4     5   ar
     5     5     6   ar
     6     6     7    1
     7     7     8    1
     8     8     9    2
     9     9    10    1
    10    10    11    2
    11    11    12    1
    12    12    13    2
    13    13    14    1
    14    14    10    1
    15    14    15    1
    16    15     7    2
    17     6    16   ar
    18    16     2   ar
    19    16    17    1
    20     1    18    1
    21     1    19    1
    22     1    20    1
    23     3    21    1
    24     4    22    1
    25     5    23    1
    26     8    24    1
    27    12    25    1
    28    13    26    1
    29    15    27    1
