@<TRIPOS>MOLECULE

  59   64
SMALL
USER_CHARGES
@<TRIPOS>ATOM
   1 C1          10.2980    -0.8153     2.3489 C.3          1    LIG   0.0000
   2 C2           9.8668    -0.4871     0.9288 C.3          1    LIG   0.0000
   3 C3           8.5972     0.3483     0.9651 C.2          1    LIG   0.0000
   4 N4           7.3701    -0.0998     0.9568 N.2          1    LIG   0.0000
   5 N5           6.5214     0.9061     0.9944 N.pl3        1    LIG   0.0000
   6 C6           7.1976     2.0797     1.0331 C.2          1    LIG   0.0000
   7 N7           6.5243     3.2668     1.0813 N.2          1    LIG   0.0000
   8 N8           5.2552     3.2972     1.0843 N.2          1    LIG   0.0000
   9 C9           4.4976     2.1530     1.0426 C.2          1    LIG   0.0000
  10 C10          3.0741     2.1655     1.0436 C.2          1    LIG   0.0000
  11 O11          2.4590     3.2201     1.0826 O.2          1    LIG   0.0000
  12 N12          2.3504     1.0000     1.0000 N.pl3        1    LIG   0.0000
  13 N13          1.0000     1.0000     1.0000 N.am         1    LIG   0.0000
  14 C14          0.3150     1.0444    -0.1856 C.2          1    LIG   0.0000
  15 O15          0.9150     1.0833    -1.2241 O.2          1    LIG   0.0000
  16 C16         -1.2050     1.0444    -0.1856 C.3          1    LIG   0.0000
  17 O17         -1.6783     0.9943     1.1522 O.3          1    LIG   0.0000
  18 C18         -3.0200     0.9890     1.2938 C.ar         1    LIG   0.0000
  19 C19         -3.8310     1.0289     0.1641 C.ar         1    LIG   0.0000
  20 C20         -5.2137     1.0219     0.3177 C.ar         1    LIG   0.0000
  21 C21         -5.7719     0.9745     1.5907 C.ar         1    LIG   0.0000
  22 C22         -7.1561     0.9674     1.7296 C.ar         1    LIG   0.0000
  23 C23         -7.7139     0.9195     3.0032 C.ar         1    LIG   0.0000
  24 C24         -6.8896     0.8791     4.1226 C.ar         1    LIG   0.0000
  25 C25         -5.5055     0.8861     3.9848 C.ar         1    LIG   0.0000
  26 C26         -4.9472     0.9345     2.7114 C.ar         1    LIG   0.0000
  27 C27         -3.5638     0.9411     2.5729 C.ar         1    LIG   0.0000
  28 C28          3.0176    -0.1967     0.9553 C.2          1    LIG   0.0000
  29 C29          4.3866    -0.2450     0.9530 C.2          1    LIG   0.0000
  30 C30          5.1529     0.9506     0.9977 C.2          1    LIG   0.0000
  31 C31          8.5221     1.7533     1.0143 C.2          1    LIG   0.0000
  32 C32          9.6385     2.6786     1.0400 C.ar         1    LIG   0.0000
  33 C33         10.1752     3.0760     2.2602 C.ar         1    LIG   0.0000
  34 C34         11.2453     3.9644     2.2754 C.ar         1    LIG   0.0000
  35 C35         11.7679     4.4456     1.0788 C.ar         1    LIG   0.0000
  36 C36         11.2251     4.0425    -0.1369 C.ar         1    LIG   0.0000
  37 C37         10.1542     3.1548    -0.1610 C.ar         1    LIG   0.0000
  38 H           11.1331    -1.3648     2.3251 H            1    LIG   0.0000
  39 H           10.4714     0.0331     2.8491 H            1    LIG   0.0000
  40 H            9.5732    -1.3301     2.8068 H            1    LIG   0.0000
  41 H           10.5916     0.0277     0.4709 H            1    LIG   0.0000
  42 H            9.6934    -1.3354     0.4286 H            1    LIG   0.0000
  43 H            0.5000     0.9676     1.8654 H            1    LIG   0.0000
  44 H           -1.5383     1.8779    -0.6262 H            1    LIG   0.0000
  45 H           -1.5383     0.2461    -0.6872 H            1    LIG   0.0000
  46 H           -3.4242     1.0623    -0.7488 H            1    LIG   0.0000
  47 H           -5.8062     1.0509    -0.4873 H            1    LIG   0.0000
  48 H           -7.7446     0.9965     0.9216 H            1    LIG   0.0000
  49 H           -8.7078     0.9140     3.1138 H            1    LIG   0.0000
  50 H           -7.2959     0.8446     5.0357 H            1    LIG   0.0000
  51 H           -4.9175     0.8567     4.7931 H            1    LIG   0.0000
  52 H           -2.9710     0.9120     3.3778 H            1    LIG   0.0000
  53 H            2.4959    -1.0493     0.9239 H            1    LIG   0.0000
  54 H            4.8510    -1.1300     0.9195 H            1    LIG   0.0000
  55 H            9.7958     2.7269     3.1170 H            1    LIG   0.0000
  56 H           11.6393     4.2574     3.1466 H            1    LIG   0.0000
  57 H           12.5373     5.0841     1.0930 H            1    LIG   0.0000
  58 H           11.6048     4.3911    -0.9939 H            1    LIG   0.0000
  59 H            9.7596     2.8622    -1.0321 H            1    LIG   0.0000
@<TRIPOS>BOND
   1        1        2 1
   2        2        3 1
   3        3        4 2
   4        4        5 1
   5        5        6 1
   6        6        7 1
   7        7        8 2
   8        8        9 1
   9        9       10 1
  10       10       11 2
  11       10       12 1
  12       12       13 1
  13       13       14 am
  14       14       15 2
  15       14       16 1
  16       16       17 1
  17       17       18 1
  18       18       19 ar
  19       19       20 ar
  20       20       21 ar
  21       21       22 ar
  22       22       23 ar
  23       23       24 ar
  24       24       25 ar
  25       25       26 ar
  26       26       21 ar
  27       26       27 ar
  28       27       18 ar
  29       12       28 1
  30       28       29 2
  31       29       30 1
  32       30        9 2
  33       30        5 1
  34        6       31 2
  35       31        3 1
  36       31       32 1
  37       32       33 ar
  38       33       34 ar
  39       34       35 ar
  40       35       36 ar
  41       36       37 ar
  42       37       32 ar
  43        1       38 1
  44        1       39 1
  45        1       40 1
  46        2       41 1
  47        2       42 1
  48       13       43 1
  49       16       44 1
  50       16       45 1
  51       19       46 1
  52       20       47 1
  53       22       48 1
  54       23       49 1
  55       24       50 1
  56       25       51 1
  57       27       52 1
  58       28       53 1
  59       29       54 1
  60       33       55 1
  61       34       56 1
  62       35       57 1
  63       36       58 1
  64       37       59 1

@<TRIPOS>MOLECULE

  59   64
SMALL
USER_CHARGES
@<TRIPOS>ATOM
   1 C1          10.2980    -0.8153     2.3489 C.3          1    LIG   0.0000
   2 C2           9.8668    -0.4871     0.9288 C.3          1    LIG   0.0000
   3 C3           8.5972     0.3483     0.9651 C.2          1    LIG   0.0000
   4 N4           7.3701    -0.0998     0.9568 N.2          1    LIG   0.0000
   5 N5           6.5214     0.9061     0.9944 N.pl3        1    LIG   0.0000
   6 C6           7.1976     2.0797     1.0331 C.2          1    LIG   0.0000
   7 N7           6.5243     3.2668     1.0813 N.2          1    LIG   0.0000
   8 N8           5.2552     3.2972     1.0843 N.2          1    LIG   0.0000
   9 C9           4.4976     2.1530     1.0426 C.2          1    LIG   0.0000
  10 C10          3.0741     2.1655     1.0436 C.2          1    LIG   0.0000
  11 O11          2.4590     3.2201     1.0826 O.2          1    LIG   0.0000
  12 N12          2.3504     1.0000     1.0000 N.pl3        1    LIG   0.0000
  13 N13          1.0000     1.0000     1.0000 N.am         1    LIG   0.0000
  14 C14          0.3150     1.0444    -0.1856 C.2          1    LIG   0.0000
  15 O15          0.9150     1.0833    -1.2241 O.2          1    LIG   0.0000
  16 C16         -1.2050     1.0444    -0.1856 C.3          1    LIG   0.0000
  17 O17         -1.6783     0.9943     1.1522 O.3          1    LIG   0.0000
  18 C18         -3.0200     0.9890     1.2938 C.ar         1    LIG   0.0000
  19 C19         -3.5769     0.9437     2.5679 C.ar         1    LIG   0.0000
  20 C20         -4.9612     0.9398     2.7064 C.ar         1    LIG   0.0000
  21 C21         -5.7733     0.9818     1.5780 C.ar         1    LIG   0.0000
  22 C22         -7.1560     0.9779     1.7311 C.ar         1    LIG   0.0000
  23 C23         -7.9677     1.0204     0.6020 C.ar         1    LIG   0.0000
  24 C24         -7.3956     1.0663    -0.6648 C.ar         1    LIG   0.0000
  25 C25         -6.0132     1.0702    -0.8189 C.ar         1    LIG   0.0000
  26 C26         -5.2010     1.0273     0.3098 C.ar         1    LIG   0.0000
  27 C27         -3.8192     1.0316     0.1564 C.ar         1    LIG   0.0000
  28 C28          3.0176    -0.1967     0.9553 C.2          1    LIG   0.0000
  29 C29          4.3866    -0.2450     0.9530 C.2          1    LIG   0.0000
  30 C30          5.1529     0.9506     0.9977 C.2          1    LIG   0.0000
  31 C31          8.5221     1.7533     1.0143 C.2          1    LIG   0.0000
  32 C32          9.6385     2.6786     1.0400 C.ar         1    LIG   0.0000
  33 C33         10.1752     3.0760     2.2602 C.ar         1    LIG   0.0000
  34 C34         11.2453     3.9644     2.2754 C.ar         1    LIG   0.0000
  35 C35         11.7679     4.4456     1.0788 C.ar         1    LIG   0.0000
  36 C36         11.2251     4.0425    -0.1369 C.ar         1    LIG   0.0000
  37 C37         10.1542     3.1548    -0.1610 C.ar         1    LIG   0.0000
  38 H           11.1331    -1.3648     2.3251 H            1    LIG   0.0000
  39 H           10.4714     0.0331     2.8491 H            1    LIG   0.0000
  40 H            9.5732    -1.3301     2.8068 H            1    LIG   0.0000
  41 H           10.5916     0.0277     0.4709 H            1    LIG   0.0000
  42 H            9.6934    -1.3354     0.4286 H            1    LIG   0.0000
  43 H            0.5000     0.9676     1.8654 H            1    LIG   0.0000
  44 H           -1.5383     1.8779    -0.6262 H            1    LIG   0.0000
  45 H           -1.5383     0.2461    -0.6872 H            1    LIG   0.0000
  46 H           -2.9883     0.9143     3.3758 H            1    LIG   0.0000
  47 H           -5.3725     0.9068     3.6173 H            1    LIG   0.0000
  48 H           -7.5626     0.9449     2.6441 H            1    LIG   0.0000
  49 H           -8.9628     1.0180     0.7013 H            1    LIG   0.0000
  50 H           -7.9838     1.0969    -1.4729 H            1    LIG   0.0000
  51 H           -5.6071     1.1036    -1.7322 H            1    LIG   0.0000
  52 H           -3.4077     1.0646    -0.7544 H            1    LIG   0.0000
  53 H            2.4959    -1.0493     0.9239 H            1    LIG   0.0000
  54 H            4.8510    -1.1300     0.9195 H            1    LIG   0.0000
  55 H            9.7958     2.7269     3.1170 H            1    LIG   0.0000
  56 H           11.6393     4.2574     3.1466 H            1    LIG   0.0000
  57 H           12.5373     5.0841     1.0930 H            1    LIG   0.0000
  58 H           11.6048     4.3911    -0.9939 H            1    LIG   0.0000
  59 H            9.7596     2.8622    -1.0321 H            1    LIG   0.0000
@<TRIPOS>BOND
   1        1        2 1
   2        2        3 1
   3        3        4 2
   4        4        5 1
   5        5        6 1
   6        6        7 1
   7        7        8 2
   8        8        9 1
   9        9       10 1
  10       10       11 2
  11       10       12 1
  12       12       13 1
  13       13       14 am
  14       14       15 2
  15       14       16 1
  16       16       17 1
  17       17       18 1
  18       18       19 ar
  19       19       20 ar
  20       20       21 ar
  21       21       22 ar
  22       22       23 ar
  23       23       24 ar
  24       24       25 ar
  25       25       26 ar
  26       26       21 ar
  27       26       27 ar
  28       27       18 ar
  29       12       28 1
  30       28       29 2
  31       29       30 1
  32       30        9 2
  33       30        5 1
  34        6       31 2
  35       31        3 1
  36       31       32 1
  37       32       33 ar
  38       33       34 ar
  39       34       35 ar
  40       35       36 ar
  41       36       37 ar
  42       37       32 ar
  43        1       38 1
  44        1       39 1
  45        1       40 1
  46        2       41 1
  47        2       42 1
  48       13       43 1
  49       16       44 1
  50       16       45 1
  51       19       46 1
  52       20       47 1
  53       22       48 1
  54       23       49 1
  55       24       50 1
  56       25       51 1
  57       27       52 1
  58       28       53 1
  59       29       54 1
  60       33       55 1
  61       34       56 1
  62       35       57 1
  63       36       58 1
  64       37       59 1

@<TRIPOS>MOLECULE

  59   64
SMALL
USER_CHARGES
@<TRIPOS>ATOM
   1 C1          10.2980    -0.8153     2.3489 C.3          1    LIG   0.0000
   2 C2           9.8668    -0.4871     0.9288 C.3          1    LIG   0.0000
   3 C3           8.5972     0.3483     0.9651 C.2          1    LIG   0.0000
   4 N4           7.3701    -0.0998     0.9568 N.2          1    LIG   0.0000
   5 N5           6.5214     0.9061     0.9944 N.pl3        1    LIG   0.0000
   6 C6           7.1976     2.0797     1.0331 C.2          1    LIG   0.0000
   7 N7           6.5243     3.2668     1.0813 N.2          1    LIG   0.0000
   8 N8           5.2552     3.2972     1.0843 N.2          1    LIG   0.0000
   9 C9           4.4976     2.1530     1.0426 C.2          1    LIG   0.0000
  10 C10          3.0741     2.1655     1.0436 C.2          1    LIG   0.0000
  11 O11          2.4590     3.2201     1.0826 O.2          1    LIG   0.0000
  12 N12          2.3504     1.0000     1.0000 N.pl3        1    LIG   0.0000
  13 N13          1.0000     1.0000     1.0000 N.am         1    LIG   0.0000
  14 C14          0.3150     1.0444    -0.1856 C.2          1    LIG   0.0000
  15 O15          0.9150     1.0833    -1.2241 O.2          1    LIG   0.0000
  16 C16         -1.2050     1.0444    -0.1856 C.3          1    LIG   0.0000
  17 O17         -1.6783     0.9943     1.1522 O.3          1    LIG   0.0000
  18 C18         -1.6726     2.1696     1.8148 C.ar         1    LIG   0.0000
  19 C19         -1.2228     3.3188     1.1726 C.ar         1    LIG   0.0000
  20 C20         -1.2209     4.5275     1.8616 C.ar         1    LIG   0.0000
  21 C21         -1.6664     4.5784     3.1782 C.ar         1    LIG   0.0000
  22 C22         -1.6595     5.7938     3.8549 C.ar         1    LIG   0.0000
  23 C23         -2.1058     5.8441     5.1717 C.ar         1    LIG   0.0000
  24 C24         -2.5532     4.6865     5.7994 C.ar         1    LIG   0.0000
  25 C25         -2.5604     3.4708     5.1236 C.ar         1    LIG   0.0000
  26 C26         -2.1139     3.4198     3.8069 C.ar         1    LIG   0.0000
  27 C27         -2.1212     2.2050     3.1306 C.ar         1    LIG   0.0000
  28 C28          3.0176    -0.1967     0.9553 C.2          1    LIG   0.0000
  29 C29          4.3866    -0.2450     0.9530 C.2          1    LIG   0.0000
  30 C30          5.1529     0.9506     0.9977 C.2          1    LIG   0.0000
  31 C31          8.5221     1.7533     1.0143 C.2          1    LIG   0.0000
  32 C32          9.6385     2.6786     1.0400 C.ar         1    LIG   0.0000
  33 C33         10.1752     3.0760     2.2602 C.ar         1    LIG   0.0000
  34 C34         11.2453     3.9644     2.2754 C.ar         1    LIG   0.0000
  35 C35         11.7679     4.4456     1.0788 C.ar         1    LIG   0.0000
  36 C36         11.2251     4.0425    -0.1369 C.ar         1    LIG   0.0000
  37 C37         10.1542     3.1548    -0.1610 C.ar         1    LIG   0.0000
  38 H           11.1331    -1.3648     2.3251 H            1    LIG   0.0000
  39 H           10.4714     0.0331     2.8491 H            1    LIG   0.0000
  40 H            9.5732    -1.3301     2.8068 H            1    LIG   0.0000
  41 H           10.5916     0.0277     0.4709 H            1    LIG   0.0000
  42 H            9.6934    -1.3354     0.4286 H            1    LIG   0.0000
  43 H            0.5000     0.9676     1.8654 H            1    LIG   0.0000
  44 H           -1.5383     1.8779    -0.6262 H            1    LIG   0.0000
  45 H           -1.5383     0.2461    -0.6872 H            1    LIG   0.0000
  46 H           -0.9042     3.2766     0.2257 H            1    LIG   0.0000
  47 H           -0.8992     5.3598     1.4101 H            1    LIG   0.0000
  48 H           -1.3369     6.6234     3.3993 H            1    LIG   0.0000
  49 H           -2.1048     6.7128     5.6670 H            1    LIG   0.0000
  50 H           -2.8728     4.7285     6.7460 H            1    LIG   0.0000
  51 H           -2.8833     2.6415     5.5796 H            1    LIG   0.0000
  52 H           -2.4429     1.3726     3.5819 H            1    LIG   0.0000
  53 H            2.4959    -1.0493     0.9239 H            1    LIG   0.0000
  54 H            4.8510    -1.1300     0.9195 H            1    LIG   0.0000
  55 H            9.7958     2.7269     3.1170 H            1    LIG   0.0000
  56 H           11.6393     4.2574     3.1466 H            1    LIG   0.0000
  57 H           12.5373     5.0841     1.0930 H            1    LIG   0.0000
  58 H           11.6048     4.3911    -0.9939 H            1    LIG   0.0000
  59 H            9.7596     2.8622    -1.0321 H            1    LIG   0.0000
@<TRIPOS>BOND
   1        1        2 1
   2        2        3 1
   3        3        4 2
   4        4        5 1
   5        5        6 1
   6        6        7 1
   7        7        8 2
   8        8        9 1
   9        9       10 1
  10       10       11 2
  11       10       12 1
  12       12       13 1
  13       13       14 am
  14       14       15 2
  15       14       16 1
  16       16       17 1
  17       17       18 1
  18       18       19 ar
  19       19       20 ar
  20       20       21 ar
  21       21       22 ar
  22       22       23 ar
  23       23       24 ar
  24       24       25 ar
  25       25       26 ar
  26       26       21 ar
  27       26       27 ar
  28       27       18 ar
  29       12       28 1
  30       28       29 2
  31       29       30 1
  32       30        9 2
  33       30        5 1
  34        6       31 2
  35       31        3 1
  36       31       32 1
  37       32       33 ar
  38       33       34 ar
  39       34       35 ar
  40       35       36 ar
  41       36       37 ar
  42       37       32 ar
  43        1       38 1
  44        1       39 1
  45        1       40 1
  46        2       41 1
  47        2       42 1
  48       13       43 1
  49       16       44 1
  50       16       45 1
  51       19       46 1
  52       20       47 1
  53       22       48 1
  54       23       49 1
  55       24       50 1
  56       25       51 1
  57       27       52 1
  58       28       53 1
  59       29       54 1
  60       33       55 1
  61       34       56 1
  62       35       57 1
  63       36       58 1
  64       37       59 1

@<TRIPOS>MOLECULE

  59   64
SMALL
USER_CHARGES
@<TRIPOS>ATOM
   1 C1          10.2980    -0.8153     2.3489 C.3          1    LIG   0.0000
   2 C2           9.8668    -0.4871     0.9288 C.3          1    LIG   0.0000
   3 C3           8.5972     0.3483     0.9651 C.2          1    LIG   0.0000
   4 N4           7.3701    -0.0998     0.9568 N.2          1    LIG   0.0000
   5 N5           6.5214     0.9061     0.9944 N.pl3        1    LIG   0.0000
   6 C6           7.1976     2.0797     1.0331 C.2          1    LIG   0.0000
   7 N7           6.5243     3.2668     1.0813 N.2          1    LIG   0.0000
   8 N8           5.2552     3.2972     1.0843 N.2          1    LIG   0.0000
   9 C9           4.4976     2.1530     1.0426 C.2          1    LIG   0.0000
  10 C10          3.0741     2.1655     1.0436 C.2          1    LIG   0.0000
  11 O11          2.4590     3.2201     1.0826 O.2          1    LIG   0.0000
  12 N12          2.3504     1.0000     1.0000 N.pl3        1    LIG   0.0000
  13 N13          1.0000     1.0000     1.0000 N.am         1    LIG   0.0000
  14 C14          0.3150     1.0444    -0.1856 C.2          1    LIG   0.0000
  15 O15          0.9150     1.0833    -1.2241 O.2          1    LIG   0.0000
  16 C16         -1.2050     1.0444    -0.1856 C.3          1    LIG   0.0000
  17 O17         -1.6783     0.9943     1.1522 O.3          1    LIG   0.0000
  18 C18         -1.6726     2.1696     1.8148 C.ar         1    LIG   0.0000
  19 C19         -2.1165     2.2185     3.1323 C.ar         1    LIG   0.0000
  20 C20         -2.1065     3.4336     3.8097 C.ar         1    LIG   0.0000
  21 C21         -1.6552     4.5830     3.1698 C.ar         1    LIG   0.0000
  22 C22         -1.6502     5.7913     3.8593 C.ar         1    LIG   0.0000
  23 C23         -1.1981     6.9406     3.2188 C.ar         1    LIG   0.0000
  24 C24         -0.7566     6.8750     1.9015 C.ar         1    LIG   0.0000
  25 C25         -0.7613     5.6674     1.2113 C.ar         1    LIG   0.0000
  26 C26         -1.2137     4.5179     1.8512 C.ar         1    LIG   0.0000
  27 C27         -1.2182     3.3104     1.1620 C.ar         1    LIG   0.0000
  28 C28          3.0176    -0.1967     0.9553 C.2          1    LIG   0.0000
  29 C29          4.3866    -0.2450     0.9530 C.2          1    LIG   0.0000
  30 C30          5.1529     0.9506     0.9977 C.2          1    LIG   0.0000
  31 C31          8.5221     1.7533     1.0143 C.2          1    LIG   0.0000
  32 C32          9.6385     2.6786     1.0400 C.ar         1    LIG   0.0000
  33 C33         10.1752     3.0760     2.2602 C.ar         1    LIG   0.0000
  34 C34         11.2453     3.9644     2.2754 C.ar         1    LIG   0.0000
  35 C35         11.7679     4.4456     1.0788 C.ar         1    LIG   0.0000
  36 C36         11.2251     4.0425    -0.1369 C.ar         1    LIG   0.0000
  37 C37         10.1542     3.1548    -0.1610 C.ar         1    LIG   0.0000
  38 H           11.1331    -1.3648     2.3251 H            1    LIG   0.0000
  39 H           10.4714     0.0331     2.8491 H            1    LIG   0.0000
  40 H            9.5732    -1.3301     2.8068 H            1    LIG   0.0000
  41 H           10.5916     0.0277     0.4709 H            1    LIG   0.0000
  42 H            9.6934    -1.3354     0.4286 H            1    LIG   0.0000
  43 H            0.5000     0.9676     1.8654 H            1    LIG   0.0000
  44 H           -1.5383     1.8779    -0.6262 H            1    LIG   0.0000
  45 H           -1.5383     0.2461    -0.6872 H            1    LIG   0.0000
  46 H           -2.4394     1.3888     3.5877 H            1    LIG   0.0000
  47 H           -2.4239     3.4806     4.7568 H            1    LIG   0.0000
  48 H           -1.9685     5.8333     4.8063 H            1    LIG   0.0000
  49 H           -1.1905     7.8141     3.7056 H            1    LIG   0.0000
  50 H           -0.4327     7.7042     1.4461 H            1    LIG   0.0000
  51 H           -0.4426     5.6259     0.2644 H            1    LIG   0.0000
  52 H           -0.9008     3.2632     0.2149 H            1    LIG   0.0000
  53 H            2.4959    -1.0493     0.9239 H            1    LIG   0.0000
  54 H            4.8510    -1.1300     0.9195 H            1    LIG   0.0000
  55 H            9.7958     2.7269     3.1170 H            1    LIG   0.0000
  56 H           11.6393     4.2574     3.1466 H            1    LIG   0.0000
  57 H           12.5373     5.0841     1.0930 H            1    LIG   0.0000
  58 H           11.6048     4.3911    -0.9939 H            1    LIG   0.0000
  59 H            9.7596     2.8622    -1.0321 H            1    LIG   0.0000
@<TRIPOS>BOND
   1        1        2 1
   2        2        3 1
   3        3        4 2
   4        4        5 1
   5        5        6 1
   6        6        7 1
   7        7        8 2
   8        8        9 1
   9        9       10 1
  10       10       11 2
  11       10       12 1
  12       12       13 1
  13       13       14 am
  14       14       15 2
  15       14       16 1
  16       16       17 1
  17       17       18 1
  18       18       19 ar
  19       19       20 ar
  20       20       21 ar
  21       21       22 ar
  22       22       23 ar
  23       23       24 ar
  24       24       25 ar
  25       25       26 ar
  26       26       21 ar
  27       26       27 ar
  28       27       18 ar
  29       12       28 1
  30       28       29 2
  31       29       30 1
  32       30        9 2
  33       30        5 1
  34        6       31 2
  35       31        3 1
  36       31       32 1
  37       32       33 ar
  38       33       34 ar
  39       34       35 ar
  40       35       36 ar
  41       36       37 ar
  42       37       32 ar
  43        1       38 1
  44        1       39 1
  45        1       40 1
  46        2       41 1
  47        2       42 1
  48       13       43 1
  49       16       44 1
  50       16       45 1
  51       19       46 1
  52       20       47 1
  53       22       48 1
  54       23       49 1
  55       24       50 1
  56       25       51 1
  57       27       52 1
  58       28       53 1
  59       29       54 1
  60       33       55 1
  61       34       56 1
  62       35       57 1
  63       36       58 1
  64       37       59 1

@<TRIPOS>MOLECULE

  59   64
SMALL
USER_CHARGES
@<TRIPOS>ATOM
   1 C1          10.2980    -0.8153     2.3489 C.3          1    LIG   0.0000
   2 C2           9.8668    -0.4871     0.9288 C.3          1    LIG   0.0000
   3 C3           8.5972     0.3483     0.9651 C.2          1    LIG   0.0000
   4 N4           7.3701    -0.0998     0.9568 N.2          1    LIG   0.0000
   5 N5           6.5214     0.9061     0.9944 N.pl3        1    LIG   0.0000
   6 C6           7.1976     2.0797     1.0331 C.2          1    LIG   0.0000
   7 N7           6.5243     3.2668     1.0813 N.2          1    LIG   0.0000
   8 N8           5.2552     3.2972     1.0843 N.2          1    LIG   0.0000
   9 C9           4.4976     2.1530     1.0426 C.2          1    LIG   0.0000
  10 C10          3.0741     2.1655     1.0436 C.2          1    LIG   0.0000
  11 O11          2.4590     3.2201     1.0826 O.2          1    LIG   0.0000
  12 N12          2.3504     1.0000     1.0000 N.pl3        1    LIG   0.0000
  13 N13          1.0000     1.0000     1.0000 N.am         1    LIG   0.0000
  14 C14          0.3150     1.0444    -0.1856 C.2          1    LIG   0.0000
  15 O15          0.9150     1.0833    -1.2241 O.2          1    LIG   0.0000
  16 C16         -1.2050     1.0444    -0.1856 C.3          1    LIG   0.0000
  17 O17         -1.6783     0.9943     1.1522 O.3          1    LIG   0.0000
  18 C18         -1.6726    -0.2272     1.7250 C.ar         1    LIG   0.0000
  19 C19         -1.2183    -1.3245     1.0004 C.ar         1    LIG   0.0000
  20 C20         -1.2140    -2.5808     1.5979 C.ar         1    LIG   0.0000
  21 C21         -1.6600    -2.7301     2.9068 C.ar         1    LIG   0.0000
  22 C22         -1.6497    -3.9921     3.4921 C.ar         1    LIG   0.0000
  23 C23         -2.0955    -4.1407     4.8016 C.ar         1    LIG   0.0000
  24 C24         -2.5457    -3.0337     5.5130 C.ar         1    LIG   0.0000
  25 C25         -2.5564    -1.7715     4.9287 C.ar         1    LIG   0.0000
  26 C26         -2.1111    -1.6224     3.6191 C.ar         1    LIG   0.0000
  27 C27         -2.1212    -0.3610     3.0346 C.ar         1    LIG   0.0000
  28 C28          3.0176    -0.1967     0.9553 C.2          1    LIG   0.0000
  29 C29          4.3866    -0.2450     0.9530 C.2          1    LIG   0.0000
  30 C30          5.1529     0.9506     0.9977 C.2          1    LIG   0.0000
  31 C31          8.5221     1.7533     1.0143 C.2          1    LIG   0.0000
  32 C32          9.6385     2.6786     1.0400 C.ar         1    LIG   0.0000
  33 C33         10.1752     3.0760     2.2602 C.ar         1    LIG   0.0000
  34 C34         11.2453     3.9644     2.2754 C.ar         1    LIG   0.0000
  35 C35         11.7679     4.4456     1.0788 C.ar         1    LIG   0.0000
  36 C36         11.2251     4.0425    -0.1369 C.ar         1    LIG   0.0000
  37 C37         10.1542     3.1548    -0.1610 C.ar         1    LIG   0.0000
  38 H           11.1331    -1.3648     2.3251 H            1    LIG   0.0000
  39 H           10.4714     0.0331     2.8491 H            1    LIG   0.0000
  40 H            9.5732    -1.3301     2.8068 H            1    LIG   0.0000
  41 H           10.5916     0.0277     0.4709 H            1    LIG   0.0000
  42 H            9.6934    -1.3354     0.4286 H            1    LIG   0.0000
  43 H            0.5000     0.9676     1.8654 H            1    LIG   0.0000
  44 H           -1.5383     1.8779    -0.6262 H            1    LIG   0.0000
  45 H           -1.5383     0.2461    -0.6872 H            1    LIG   0.0000
  46 H           -0.8982    -1.2113     0.0598 H            1    LIG   0.0000
  47 H           -0.8903    -3.3767     1.0862 H            1    LIG   0.0000
  48 H           -1.3250    -4.7850     2.9764 H            1    LIG   0.0000
  49 H           -2.0921    -5.0436     5.2314 H            1    LIG   0.0000
  50 H           -2.8649    -3.1463     6.4540 H            1    LIG   0.0000
  51 H           -2.8809    -0.9789     5.4449 H            1    LIG   0.0000
  52 H           -2.4448     0.4350     3.5461 H            1    LIG   0.0000
  53 H            2.4959    -1.0493     0.9239 H            1    LIG   0.0000
  54 H            4.8510    -1.1300     0.9195 H            1    LIG   0.0000
  55 H            9.7958     2.7269     3.1170 H            1    LIG   0.0000
  56 H           11.6393     4.2574     3.1466 H            1    LIG   0.0000
  57 H           12.5373     5.0841     1.0930 H            1    LIG   0.0000
  58 H           11.6048     4.3911    -0.9939 H            1    LIG   0.0000
  59 H            9.7596     2.8622    -1.0321 H            1    LIG   0.0000
@<TRIPOS>BOND
   1        1        2 1
   2        2        3 1
   3        3        4 2
   4        4        5 1
   5        5        6 1
   6        6        7 1
   7        7        8 2
   8        8        9 1
   9        9       10 1
  10       10       11 2
  11       10       12 1
  12       12       13 1
  13       13       14 am
  14       14       15 2
  15       14       16 1
  16       16       17 1
  17       17       18 1
  18       18       19 ar
  19       19       20 ar
  20       20       21 ar
  21       21       22 ar
  22       22       23 ar
  23       23       24 ar
  24       24       25 ar
  25       25       26 ar
  26       26       21 ar
  27       26       27 ar
  28       27       18 ar
  29       12       28 1
  30       28       29 2
  31       29       30 1
  32       30        9 2
  33       30        5 1
  34        6       31 2
  35       31        3 1
  36       31       32 1
  37       32       33 ar
  38       33       34 ar
  39       34       35 ar
  40       35       36 ar
  41       36       37 ar
  42       37       32 ar
  43        1       38 1
  44        1       39 1
  45        1       40 1
  46        2       41 1
  47        2       42 1
  48       13       43 1
  49       16       44 1
  50       16       45 1
  51       19       46 1
  52       20       47 1
  53       22       48 1
  54       23       49 1
  55       24       50 1
  56       25       51 1
  57       27       52 1
  58       28       53 1
  59       29       54 1
  60       33       55 1
  61       34       56 1
  62       35       57 1
  63       36       58 1
  64       37       59 1

@<TRIPOS>MOLECULE

  59   64
SMALL
USER_CHARGES
@<TRIPOS>ATOM
   1 C1          10.2980    -0.8153     2.3489 C.3          1    LIG   0.0000
   2 C2           9.8668    -0.4871     0.9288 C.3          1    LIG   0.0000
   3 C3           8.5972     0.3483     0.9651 C.2          1    LIG   0.0000
   4 N4           7.3701    -0.0998     0.9568 N.2          1    LIG   0.0000
   5 N5           6.5214     0.9061     0.9944 N.pl3        1    LIG   0.0000
   6 C6           7.1976     2.0797     1.0331 C.2          1    LIG   0.0000
   7 N7           6.5243     3.2668     1.0813 N.2          1    LIG   0.0000
   8 N8           5.2552     3.2972     1.0843 N.2          1    LIG   0.0000
   9 C9           4.4976     2.1530     1.0426 C.2          1    LIG   0.0000
  10 C10          3.0741     2.1655     1.0436 C.2          1    LIG   0.0000
  11 O11          2.4590     3.2201     1.0826 O.2          1    LIG   0.0000
  12 N12          2.3504     1.0000     1.0000 N.pl3        1    LIG   0.0000
  13 N13          1.0000     1.0000     1.0000 N.am         1    LIG   0.0000
  14 C14          0.3150     1.0444    -0.1856 C.2          1    LIG   0.0000
  15 O15          0.9150     1.0833    -1.2241 O.2          1    LIG   0.0000
  16 C16         -1.2050     1.0444    -0.1856 C.3          1    LIG   0.0000
  17 O17         -1.6783     0.9943     1.1522 O.3          1    LIG   0.0000
  18 C18         -1.6726    -0.2272     1.7250 C.ar         1    LIG   0.0000
  19 C19         -2.1210    -0.3753     3.0336 C.ar         1    LIG   0.0000
  20 C20         -2.1134    -1.6380     3.6174 C.ar         1    LIG   0.0000
  21 C21         -1.6615    -2.7363     2.8935 C.ar         1    LIG   0.0000
  22 C22         -1.6600    -3.9934     3.4895 C.ar         1    LIG   0.0000
  23 C23         -1.2083    -5.0917     2.7647 C.ar         1    LIG   0.0000
  24 C24         -0.7641    -4.9273     1.4570 C.ar         1    LIG   0.0000
  25 C25         -0.7653    -3.6708     0.8603 C.ar         1    LIG   0.0000
  26 C26         -1.2164    -2.5721     1.5848 C.ar         1    LIG   0.0000
  27 C27         -1.2182    -1.3160     0.9888 C.ar         1    LIG   0.0000
  28 C28          3.0176    -0.1967     0.9553 C.2          1    LIG   0.0000
  29 C29          4.3866    -0.2450     0.9530 C.2          1    LIG   0.0000
  30 C30          5.1529     0.9506     0.9977 C.2          1    LIG   0.0000
  31 C31          8.5221     1.7533     1.0143 C.2          1    LIG   0.0000
  32 C32          9.6385     2.6786     1.0400 C.ar         1    LIG   0.0000
  33 C33         10.1752     3.0760     2.2602 C.ar         1    LIG   0.0000
  34 C34         11.2453     3.9644     2.2754 C.ar         1    LIG   0.0000
  35 C35         11.7679     4.4456     1.0788 C.ar         1    LIG   0.0000
  36 C36         11.2251     4.0425    -0.1369 C.ar         1    LIG   0.0000
  37 C37         10.1542     3.1548    -0.1610 C.ar         1    LIG   0.0000
  38 H           11.1331    -1.3648     2.3251 H            1    LIG   0.0000
  39 H           10.4714     0.0331     2.8491 H            1    LIG   0.0000
  40 H            9.5732    -1.3301     2.8068 H            1    LIG   0.0000
  41 H           10.5916     0.0277     0.4709 H            1    LIG   0.0000
  42 H            9.6934    -1.3354     0.4286 H            1    LIG   0.0000
  43 H            0.5000     0.9676     1.8654 H            1    LIG   0.0000
  44 H           -1.5383     1.8779    -0.6262 H            1    LIG   0.0000
  45 H           -1.5383     0.2461    -0.6872 H            1    LIG   0.0000
  46 H           -2.4453     0.4178     3.5493 H            1    LIG   0.0000
  47 H           -2.4328    -1.7561     4.5576 H            1    LIG   0.0000
  48 H           -1.9804    -4.1065     4.4300 H            1    LIG   0.0000
  49 H           -1.2031    -5.9995     3.1840 H            1    LIG   0.0000
  50 H           -0.4406    -5.7202     0.9407 H            1    LIG   0.0000
  51 H           -0.4450    -3.5584    -0.0803 H            1    LIG   0.0000
  52 H           -0.8989    -1.1978     0.0485 H            1    LIG   0.0000
  53 H            2.4959    -1.0493     0.9239 H            1    LIG   0.0000
  54 H            4.8510    -1.1300     0.9195 H            1    LIG   0.0000
  55 H            9.7958     2.7269     3.1170 H            1    LIG   0.0000
  56 H           11.6393     4.2574     3.1466 H            1    LIG   0.0000
  57 H           12.5373     5.0841     1.0930 H            1    LIG   0.0000
  58 H           11.6048     4.3911    -0.9939 H            1    LIG   0.0000
  59 H            9.7596     2.8622    -1.0321 H            1    LIG   0.0000
@<TRIPOS>BOND
   1        1        2 1
   2        2        3 1
   3        3        4 2
   4        4        5 1
   5        5        6 1
   6        6        7 1
   7        7        8 2
   8        8        9 1
   9        9       10 1
  10       10       11 2
  11       10       12 1
  12       12       13 1
  13       13       14 am
  14       14       15 2
  15       14       16 1
  16       16       17 1
  17       17       18 1
  18       18       19 ar
  19       19       20 ar
  20       20       21 ar
  21       21       22 ar
  22       22       23 ar
  23       23       24 ar
  24       24       25 ar
  25       25       26 ar
  26       26       21 ar
  27       26       27 ar
  28       27       18 ar
  29       12       28 1
  30       28       29 2
  31       29       30 1
  32       30        9 2
  33       30        5 1
  34        6       31 2
  35       31        3 1
  36       31       32 1
  37       32       33 ar
  38       33       34 ar
  39       34       35 ar
  40       35       36 ar
  41       36       37 ar
  42       37       32 ar
  43        1       38 1
  44        1       39 1
  45        1       40 1
  46        2       41 1
  47        2       42 1
  48       13       43 1
  49       16       44 1
  50       16       45 1
  51       19       46 1
  52       20       47 1
  53       22       48 1
  54       23       49 1
  55       24       50 1
  56       25       51 1
  57       27       52 1
  58       28       53 1
  59       29       54 1
  60       33       55 1
  61       34       56 1
  62       35       57 1
  63       36       58 1
  64       37       59 1

@<TRIPOS>MOLECULE

  59   64
SMALL
USER_CHARGES
@<TRIPOS>ATOM
   1 C1          10.2980    -0.8153     2.3489 C.3          1    LIG   0.0000
   2 C2           9.8668    -0.4871     0.9288 C.3          1    LIG   0.0000
   3 C3           8.5972     0.3483     0.9651 C.2          1    LIG   0.0000
   4 N4           7.3701    -0.0998     0.9568 N.2          1    LIG   0.0000
   5 N5           6.5214     0.9061     0.9944 N.pl3        1    LIG   0.0000
   6 C6           7.1976     2.0797     1.0331 C.2          1    LIG   0.0000
   7 N7           6.5243     3.2668     1.0813 N.2          1    LIG   0.0000
   8 N8           5.2552     3.2972     1.0843 N.2          1    LIG   0.0000
   9 C9           4.4976     2.1530     1.0426 C.2          1    LIG   0.0000
  10 C10          3.0741     2.1655     1.0436 C.2          1    LIG   0.0000
  11 O11          2.4590     3.2201     1.0826 O.2          1    LIG   0.0000
  12 N12          2.3504     1.0000     1.0000 N.pl3        1    LIG   0.0000
  13 N13          1.0000     1.0000     1.0000 N.am         1    LIG   0.0000
  14 C14          0.3150     1.0444    -0.1856 C.2          1    LIG   0.0000
  15 O15          0.9150     1.0833    -1.2241 O.2          1    LIG   0.0000
  16 C16         -1.2050     1.0444    -0.1856 C.3          1    LIG   0.0000
  17 O17         -1.6783     1.0945    -1.5235 O.3          1    LIG   0.0000
  18 C18         -1.6726    -0.0808    -2.1860 C.ar         1    LIG   0.0000
  19 C19         -1.2228    -1.2301    -1.5439 C.ar         1    LIG   0.0000
  20 C20         -1.2209    -2.4387    -2.2328 C.ar         1    LIG   0.0000
  21 C21         -1.6664    -2.4896    -3.5494 C.ar         1    LIG   0.0000
  22 C22         -1.6595    -3.7050    -4.2262 C.ar         1    LIG   0.0000
  23 C23         -2.1058    -3.7553    -5.5430 C.ar         1    LIG   0.0000
  24 C24         -2.5532    -2.5977    -6.1706 C.ar         1    LIG   0.0000
  25 C25         -2.5604    -1.3820    -5.4948 C.ar         1    LIG   0.0000
  26 C26         -2.1139    -1.3311    -4.1781 C.ar         1    LIG   0.0000
  27 C27         -2.1212    -0.1163    -3.5019 C.ar         1    LIG   0.0000
  28 C28          3.0176    -0.1967     0.9553 C.2          1    LIG   0.0000
  29 C29          4.3866    -0.2450     0.9530 C.2          1    LIG   0.0000
  30 C30          5.1529     0.9506     0.9977 C.2          1    LIG   0.0000
  31 C31          8.5221     1.7533     1.0143 C.2          1    LIG   0.0000
  32 C32          9.6385     2.6786     1.0400 C.ar         1    LIG   0.0000
  33 C33         10.1752     3.0760     2.2602 C.ar         1    LIG   0.0000
  34 C34         11.2453     3.9644     2.2754 C.ar         1    LIG   0.0000
  35 C35         11.7679     4.4456     1.0788 C.ar         1    LIG   0.0000
  36 C36         11.2251     4.0425    -0.1369 C.ar         1    LIG   0.0000
  37 C37         10.1542     3.1548    -0.1610 C.ar         1    LIG   0.0000
  38 H           11.1331    -1.3648     2.3251 H            1    LIG   0.0000
  39 H           10.4714     0.0331     2.8491 H            1    LIG   0.0000
  40 H            9.5732    -1.3301     2.8068 H            1    LIG   0.0000
  41 H           10.5916     0.0277     0.4709 H            1    LIG   0.0000
  42 H            9.6934    -1.3354     0.4286 H            1    LIG   0.0000
  43 H            0.5000     0.9676     1.8654 H            1    LIG   0.0000
  44 H           -1.5383     0.2108     0.2549 H            1    LIG   0.0000
  45 H           -1.5383     1.8427     0.3160 H            1    LIG   0.0000
  46 H           -0.9042    -1.1878    -0.5969 H            1    LIG   0.0000
  47 H           -0.8992    -3.2710    -1.7814 H            1    LIG   0.0000
  48 H           -1.3369    -4.5347    -3.7705 H            1    LIG   0.0000
  49 H           -2.1048    -4.6241    -6.0383 H            1    LIG   0.0000
  50 H           -2.8728    -2.6397    -7.1172 H            1    LIG   0.0000
  51 H           -2.8833    -0.5527    -5.9509 H            1    LIG   0.0000
  52 H           -2.4429     0.7161    -3.9531 H            1    LIG   0.0000
  53 H            2.4959    -1.0493     0.9239 H            1    LIG   0.0000
  54 H            4.8510    -1.1300     0.9195 H            1    LIG   0.0000
  55 H            9.7958     2.7269     3.1170 H            1    LIG   0.0000
  56 H           11.6393     4.2574     3.1466 H            1    LIG   0.0000
  57 H           12.5373     5.0841     1.0930 H            1    LIG   0.0000
  58 H           11.6048     4.3911    -0.9939 H            1    LIG   0.0000
  59 H            9.7596     2.8622    -1.0321 H            1    LIG   0.0000
@<TRIPOS>BOND
   1        1        2 1
   2        2        3 1
   3        3        4 2
   4        4        5 1
   5        5        6 1
   6        6        7 1
   7        7        8 2
   8        8        9 1
   9        9       10 1
  10       10       11 2
  11       10       12 1
  12       12       13 1
  13       13       14 am
  14       14       15 2
  15       14       16 1
  16       16       17 1
  17       17       18 1
  18       18       19 ar
  19       19       20 ar
  20       20       21 ar
  21       21       22 ar
  22       22       23 ar
  23       23       24 ar
  24       24       25 ar
  25       25       26 ar
  26       26       21 ar
  27       26       27 ar
  28       27       18 ar
  29       12       28 1
  30       28       29 2
  31       29       30 1
  32       30        9 2
  33       30        5 1
  34        6       31 2
  35       31        3 1
  36       31       32 1
  37       32       33 ar
  38       33       34 ar
  39       34       35 ar
  40       35       36 ar
  41       36       37 ar
  42       37       32 ar
  43        1       38 1
  44        1       39 1
  45        1       40 1
  46        2       41 1
  47        2       42 1
  48       13       43 1
  49       16       44 1
  50       16       45 1
  51       19       46 1
  52       20       47 1
  53       22       48 1
  54       23       49 1
  55       24       50 1
  56       25       51 1
  57       27       52 1
  58       28       53 1
  59       29       54 1
  60       33       55 1
  61       34       56 1
  62       35       57 1
  63       36       58 1
  64       37       59 1

@<TRIPOS>MOLECULE

  59   64
SMALL
USER_CHARGES
@<TRIPOS>ATOM
   1 C1          10.2980    -0.8153     2.3489 C.3          1    LIG   0.0000
   2 C2           9.8668    -0.4871     0.9288 C.3          1    LIG   0.0000
   3 C3           8.5972     0.3483     0.9651 C.2          1    LIG   0.0000
   4 N4           7.3701    -0.0998     0.9568 N.2          1    LIG   0.0000
   5 N5           6.5214     0.9061     0.9944 N.pl3        1    LIG   0.0000
   6 C6           7.1976     2.0797     1.0331 C.2          1    LIG   0.0000
   7 N7           6.5243     3.2668     1.0813 N.2          1    LIG   0.0000
   8 N8           5.2552     3.2972     1.0843 N.2          1    LIG   0.0000
   9 C9           4.4976     2.1530     1.0426 C.2          1    LIG   0.0000
  10 C10          3.0741     2.1655     1.0436 C.2          1    LIG   0.0000
  11 O11          2.4590     3.2201     1.0826 O.2          1    LIG   0.0000
  12 N12          2.3504     1.0000     1.0000 N.pl3        1    LIG   0.0000
  13 N13          1.0000     1.0000     1.0000 N.am         1    LIG   0.0000
  14 C14          0.3150     1.0444    -0.1856 C.2          1    LIG   0.0000
  15 O15          0.9150     1.0833    -1.2241 O.2          1    LIG   0.0000
  16 C16         -1.2050     1.0444    -0.1856 C.3          1    LIG   0.0000
  17 O17         -1.6783     1.0945    -1.5235 O.3          1    LIG   0.0000
  18 C18         -1.6726    -0.0808    -2.1860 C.ar         1    LIG   0.0000
  19 C19         -2.1165    -0.1297    -3.5036 C.ar         1    LIG   0.0000
  20 C20         -2.1065    -1.3448    -4.1810 C.ar         1    LIG   0.0000
  21 C21         -1.6552    -2.4943    -3.5410 C.ar         1    LIG   0.0000
  22 C22         -1.6502    -3.7025    -4.2305 C.ar         1    LIG   0.0000
  23 C23         -1.1981    -4.8518    -3.5900 C.ar         1    LIG   0.0000
  24 C24         -0.7566    -4.7862    -2.2727 C.ar         1    LIG   0.0000
  25 C25         -0.7613    -3.5786    -1.5826 C.ar         1    LIG   0.0000
  26 C26         -1.2137    -2.4291    -2.2225 C.ar         1    LIG   0.0000
  27 C27         -1.2182    -1.2216    -1.5332 C.ar         1    LIG   0.0000
  28 C28          3.0176    -0.1967     0.9553 C.2          1    LIG   0.0000
  29 C29          4.3866    -0.2450     0.9530 C.2          1    LIG   0.0000
  30 C30          5.1529     0.9506     0.9977 C.2          1    LIG   0.0000
  31 C31          8.5221     1.7533     1.0143 C.2          1    LIG   0.0000
  32 C32          9.6385     2.6786     1.0400 C.ar         1    LIG   0.0000
  33 C33         10.1752     3.0760     2.2602 C.ar         1    LIG   0.0000
  34 C34         11.2453     3.9644     2.2754 C.ar         1    LIG   0.0000
  35 C35         11.7679     4.4456     1.0788 C.ar         1    LIG   0.0000
  36 C36         11.2251     4.0425    -0.1369 C.ar         1    LIG   0.0000
  37 C37         10.1542     3.1548    -0.1610 C.ar         1    LIG   0.0000
  38 H           11.1331    -1.3648     2.3251 H            1    LIG   0.0000
  39 H           10.4714     0.0331     2.8491 H            1    LIG   0.0000
  40 H            9.5732    -1.3301     2.8068 H            1    LIG   0.0000
  41 H           10.5916     0.0277     0.4709 H            1    LIG   0.0000
  42 H            9.6934    -1.3354     0.4286 H            1    LIG   0.0000
  43 H            0.5000     0.9676     1.8654 H            1    LIG   0.0000
  44 H           -1.5383     0.2108     0.2549 H            1    LIG   0.0000
  45 H           -1.5383     1.8427     0.3160 H            1    LIG   0.0000
  46 H           -2.4394     0.6999    -3.9590 H            1    LIG   0.0000
  47 H           -2.4239    -1.3918    -5.1281 H            1    LIG   0.0000
  48 H           -1.9685    -3.7446    -5.1776 H            1    LIG   0.0000
  49 H           -1.1905    -5.7253    -4.0768 H            1    LIG   0.0000
  50 H           -0.4327    -5.6155    -1.8173 H            1    LIG   0.0000
  51 H           -0.4426    -3.5371    -0.6356 H            1    LIG   0.0000
  52 H           -0.9008    -1.1744    -0.5861 H            1    LIG   0.0000
  53 H            2.4959    -1.0493     0.9239 H            1    LIG   0.0000
  54 H            4.8510    -1.1300     0.9195 H            1    LIG   0.0000
  55 H            9.7958     2.7269     3.1170 H            1    LIG   0.0000
  56 H           11.6393     4.2574     3.1466 H            1    LIG   0.0000
  57 H           12.5373     5.0841     1.0930 H            1    LIG   0.0000
  58 H           11.6048     4.3911    -0.9939 H            1    LIG   0.0000
  59 H            9.7596     2.8622    -1.0321 H            1    LIG   0.0000
@<TRIPOS>BOND
   1        1        2 1
   2        2        3 1
   3        3        4 2
   4        4        5 1
   5        5        6 1
   6        6        7 1
   7        7        8 2
   8        8        9 1
   9        9       10 1
  10       10       11 2
  11       10       12 1
  12       12       13 1
  13       13       14 am
  14       14       15 2
  15       14       16 1
  16       16       17 1
  17       17       18 1
  18       18       19 ar
  19       19       20 ar
  20       20       21 ar
  21       21       22 ar
  22       22       23 ar
  23       23       24 ar
  24       24       25 ar
  25       25       26 ar
  26       26       21 ar
  27       26       27 ar
  28       27       18 ar
  29       12       28 1
  30       28       29 2
  31       29       30 1
  32       30        9 2
  33       30        5 1
  34        6       31 2
  35       31        3 1
  36       31       32 1
  37       32       33 ar
  38       33       34 ar
  39       34       35 ar
  40       35       36 ar
  41       36       37 ar
  42       37       32 ar
  43        1       38 1
  44        1       39 1
  45        1       40 1
  46        2       41 1
  47        2       42 1
  48       13       43 1
  49       16       44 1
  50       16       45 1
  51       19       46 1
  52       20       47 1
  53       22       48 1
  54       23       49 1
  55       24       50 1
  56       25       51 1
  57       27       52 1
  58       28       53 1
  59       29       54 1
  60       33       55 1
  61       34       56 1
  62       35       57 1
  63       36       58 1
  64       37       59 1

@<TRIPOS>MOLECULE

  59   64
SMALL
USER_CHARGES
@<TRIPOS>ATOM
   1 C1          10.2980    -0.8153     2.3489 C.3          1    LIG   0.0000
   2 C2           9.8668    -0.4871     0.9288 C.3          1    LIG   0.0000
   3 C3           8.5972     0.3483     0.9651 C.2          1    LIG   0.0000
   4 N4           7.3701    -0.0998     0.9568 N.2          1    LIG   0.0000
   5 N5           6.5214     0.9061     0.9944 N.pl3        1    LIG   0.0000
   6 C6           7.1976     2.0797     1.0331 C.2          1    LIG   0.0000
   7 N7           6.5243     3.2668     1.0813 N.2          1    LIG   0.0000
   8 N8           5.2552     3.2972     1.0843 N.2          1    LIG   0.0000
   9 C9           4.4976     2.1530     1.0426 C.2          1    LIG   0.0000
  10 C10          3.0741     2.1655     1.0436 C.2          1    LIG   0.0000
  11 O11          2.4590     3.2201     1.0826 O.2          1    LIG   0.0000
  12 N12          2.3504     1.0000     1.0000 N.pl3        1    LIG   0.0000
  13 N13          1.0000     1.0000     1.0000 N.am         1    LIG   0.0000
  14 C14          0.3150     1.0444    -0.1856 C.2          1    LIG   0.0000
  15 O15          0.9150     1.0833    -1.2241 O.2          1    LIG   0.0000
  16 C16         -1.2050     1.0444    -0.1856 C.3          1    LIG   0.0000
  17 O17         -1.6783     1.0945    -1.5235 O.3          1    LIG   0.0000
  18 C18         -1.6726     2.3160    -2.0963 C.ar         1    LIG   0.0000
  19 C19         -1.2183     3.4132    -1.3716 C.ar         1    LIG   0.0000
  20 C20         -1.2140     4.6696    -1.9691 C.ar         1    LIG   0.0000
  21 C21         -1.6600     4.8189    -3.2780 C.ar         1    LIG   0.0000
  22 C22         -1.6497     6.0809    -3.8633 C.ar         1    LIG   0.0000
  23 C23         -2.0955     6.2295    -5.1728 C.ar         1    LIG   0.0000
  24 C24         -2.5457     5.1225    -5.8843 C.ar         1    LIG   0.0000
  25 C25         -2.5564     3.8603    -5.3000 C.ar         1    LIG   0.0000
  26 C26         -2.1111     3.7112    -3.9903 C.ar         1    LIG   0.0000
  27 C27         -2.1212     2.4497    -3.4058 C.ar         1    LIG   0.0000
  28 C28          3.0176    -0.1967     0.9553 C.2          1    LIG   0.0000
  29 C29          4.3866    -0.2450     0.9530 C.2          1    LIG   0.0000
  30 C30          5.1529     0.9506     0.9977 C.2          1    LIG   0.0000
  31 C31          8.5221     1.7533     1.0143 C.2          1    LIG   0.0000
  32 C32          9.6385     2.6786     1.0400 C.ar         1    LIG   0.0000
  33 C33         10.1752     3.0760     2.2602 C.ar         1    LIG   0.0000
  34 C34         11.2453     3.9644     2.2754 C.ar         1    LIG   0.0000
  35 C35         11.7679     4.4456     1.0788 C.ar         1    LIG   0.0000
  36 C36         11.2251     4.0425    -0.1369 C.ar         1    LIG   0.0000
  37 C37         10.1542     3.1548    -0.1610 C.ar         1    LIG   0.0000
  38 H           11.1331    -1.3648     2.3251 H            1    LIG   0.0000
  39 H           10.4714     0.0331     2.8491 H            1    LIG   0.0000
  40 H            9.5732    -1.3301     2.8068 H            1    LIG   0.0000
  41 H           10.5916     0.0277     0.4709 H            1    LIG   0.0000
  42 H            9.6934    -1.3354     0.4286 H            1    LIG   0.0000
  43 H            0.5000     0.9676     1.8654 H            1    LIG   0.0000
  44 H           -1.5383     0.2108     0.2549 H            1    LIG   0.0000
  45 H           -1.5383     1.8427     0.3160 H            1    LIG   0.0000
  46 H           -0.8982     3.3001    -0.4310 H            1    LIG   0.0000
  47 H           -0.8903     5.4654    -1.4574 H            1    LIG   0.0000
  48 H           -1.3250     6.8738    -3.3477 H            1    LIG   0.0000
  49 H           -2.0921     7.1324    -5.6026 H            1    LIG   0.0000
  50 H           -2.8649     5.2351    -6.8252 H            1    LIG   0.0000
  51 H           -2.8809     3.0677    -5.8162 H            1    LIG   0.0000
  52 H           -2.4448     1.6537    -3.9173 H            1    LIG   0.0000
  53 H            2.4959    -1.0493     0.9239 H            1    LIG   0.0000
  54 H            4.8510    -1.1300     0.9195 H            1    LIG   0.0000
  55 H            9.7958     2.7269     3.1170 H            1    LIG   0.0000
  56 H           11.6393     4.2574     3.1466 H            1    LIG   0.0000
  57 H           12.5373     5.0841     1.0930 H            1    LIG   0.0000
  58 H           11.6048     4.3911    -0.9939 H            1    LIG   0.0000
  59 H            9.7596     2.8622    -1.0321 H            1    LIG   0.0000
@<TRIPOS>BOND
   1        1        2 1
   2        2        3 1
   3        3        4 2
   4        4        5 1
   5        5        6 1
   6        6        7 1
   7        7        8 2
   8        8        9 1
   9        9       10 1
  10       10       11 2
  11       10       12 1
  12       12       13 1
  13       13       14 am
  14       14       15 2
  15       14       16 1
  16       16       17 1
  17       17       18 1
  18       18       19 ar
  19       19       20 ar
  20       20       21 ar
  21       21       22 ar
  22       22       23 ar
  23       23       24 ar
  24       24       25 ar
  25       25       26 ar
  26       26       21 ar
  27       26       27 ar
  28       27       18 ar
  29       12       28 1
  30       28       29 2
  31       29       30 1
  32       30        9 2
  33       30        5 1
  34        6       31 2
  35       31        3 1
  36       31       32 1
  37       32       33 ar
  38       33       34 ar
  39       34       35 ar
  40       35       36 ar
  41       36       37 ar
  42       37       32 ar
  43        1       38 1
  44        1       39 1
  45        1       40 1
  46        2       41 1
  47        2       42 1
  48       13       43 1
  49       16       44 1
  50       16       45 1
  51       19       46 1
  52       20       47 1
  53       22       48 1
  54       23       49 1
  55       24       50 1
  56       25       51 1
  57       27       52 1
  58       28       53 1
  59       29       54 1
  60       33       55 1
  61       34       56 1
  62       35       57 1
  63       36       58 1
  64       37       59 1

@<TRIPOS>MOLECULE

  59   64
SMALL
USER_CHARGES
@<TRIPOS>ATOM
   1 C1          10.2980    -0.8153     2.3489 C.3          1    LIG   0.0000
   2 C2           9.8668    -0.4871     0.9288 C.3          1    LIG   0.0000
   3 C3           8.5972     0.3483     0.9651 C.2          1    LIG   0.0000
   4 N4           7.3701    -0.0998     0.9568 N.2          1    LIG   0.0000
   5 N5           6.5214     0.9061     0.9944 N.pl3        1    LIG   0.0000
   6 C6           7.1976     2.0797     1.0331 C.2          1    LIG   0.0000
   7 N7           6.5243     3.2668     1.0813 N.2          1    LIG   0.0000
   8 N8           5.2552     3.2972     1.0843 N.2          1    LIG   0.0000
   9 C9           4.4976     2.1530     1.0426 C.2          1    LIG   0.0000
  10 C10          3.0741     2.1655     1.0436 C.2          1    LIG   0.0000
  11 O11          2.4590     3.2201     1.0826 O.2          1    LIG   0.0000
  12 N12          2.3504     1.0000     1.0000 N.pl3        1    LIG   0.0000
  13 N13          1.0000     1.0000     1.0000 N.am         1    LIG   0.0000
  14 C14          0.3150     1.0444    -0.1856 C.2          1    LIG   0.0000
  15 O15          0.9150     1.0833    -1.2241 O.2          1    LIG   0.0000
  16 C16         -1.2050     1.0444    -0.1856 C.3          1    LIG   0.0000
  17 O17         -1.6783     1.0945    -1.5235 O.3          1    LIG   0.0000
  18 C18         -1.6726     2.3160    -2.0963 C.ar         1    LIG   0.0000
  19 C19         -2.1210     2.4640    -3.4049 C.ar         1    LIG   0.0000
  20 C20         -2.1134     3.7268    -3.9887 C.ar         1    LIG   0.0000
  21 C21         -1.6615     4.8251    -3.2648 C.ar         1    LIG   0.0000
  22 C22         -1.6600     6.0822    -3.8608 C.ar         1    LIG   0.0000
  23 C23         -1.2083     7.1804    -3.1359 C.ar         1    LIG   0.0000
  24 C24         -0.7641     7.0160    -1.8283 C.ar         1    LIG   0.0000
  25 C25         -0.7653     5.7596    -1.2315 C.ar         1    LIG   0.0000
  26 C26         -1.2164     4.6609    -1.9561 C.ar         1    LIG   0.0000
  27 C27         -1.2182     3.4048    -1.3600 C.ar         1    LIG   0.0000
  28 C28          3.0176    -0.1967     0.9553 C.2          1    LIG   0.0000
  29 C29          4.3866    -0.2450     0.9530 C.2          1    LIG   0.0000
  30 C30          5.1529     0.9506     0.9977 C.2          1    LIG   0.0000
  31 C31          8.5221     1.7533     1.0143 C.2          1    LIG   0.0000
  32 C32          9.6385     2.6786     1.0400 C.ar         1    LIG   0.0000
  33 C33         10.1752     3.0760     2.2602 C.ar         1    LIG   0.0000
  34 C34         11.2453     3.9644     2.2754 C.ar         1    LIG   0.0000
  35 C35         11.7679     4.4456     1.0788 C.ar         1    LIG   0.0000
  36 C36         11.2251     4.0425    -0.1369 C.ar         1    LIG   0.0000
  37 C37         10.1542     3.1548    -0.1610 C.ar         1    LIG   0.0000
  38 H           11.1331    -1.3648     2.3251 H            1    LIG   0.0000
  39 H           10.4714     0.0331     2.8491 H            1    LIG   0.0000
  40 H            9.5732    -1.3301     2.8068 H            1    LIG   0.0000
  41 H           10.5916     0.0277     0.4709 H            1    LIG   0.0000
  42 H            9.6934    -1.3354     0.4286 H            1    LIG   0.0000
  43 H            0.5000     0.9676     1.8654 H            1    LIG   0.0000
  44 H           -1.5383     0.2108     0.2549 H            1    LIG   0.0000
  45 H           -1.5383     1.8427     0.3160 H            1    LIG   0.0000
  46 H           -2.4453     1.6710    -3.9205 H            1    LIG   0.0000
  47 H           -2.4328     3.8449    -4.9289 H            1    LIG   0.0000
  48 H           -1.9804     6.1952    -4.8013 H            1    LIG   0.0000
  49 H           -1.2031     8.0883    -3.5552 H            1    LIG   0.0000
  50 H           -0.4406     7.8090    -1.3119 H            1    LIG   0.0000
  51 H           -0.4450     5.6471    -0.2909 H            1    LIG   0.0000
  52 H           -0.8989     3.2866    -0.4198 H            1    LIG   0.0000
  53 H            2.4959    -1.0493     0.9239 H            1    LIG   0.0000
  54 H            4.8510    -1.1300     0.9195 H            1    LIG   0.0000
  55 H            9.7958     2.7269     3.1170 H            1    LIG   0.0000
  56 H           11.6393     4.2574     3.1466 H            1    LIG   0.0000
  57 H           12.5373     5.0841     1.0930 H            1    LIG   0.0000
  58 H           11.6048     4.3911    -0.9939 H            1    LIG   0.0000
  59 H            9.7596     2.8622    -1.0321 H            1    LIG   0.0000
@<TRIPOS>BOND
   1        1        2 1
   2        2        3 1
   3        3        4 2
   4        4        5 1
   5        5        6 1
   6        6        7 1
   7        7        8 2
   8        8        9 1
   9        9       10 1
  10       10       11 2
  11       10       12 1
  12       12       13 1
  13       13       14 am
  14       14       15 2
  15       14       16 1
  16       16       17 1
  17       17       18 1
  18       18       19 ar
  19       19       20 ar
  20       20       21 ar
  21       21       22 ar
  22       22       23 ar
  23       23       24 ar
  24       24       25 ar
  25       25       26 ar
  26       26       21 ar
  27       26       27 ar
  28       27       18 ar
  29       12       28 1
  30       28       29 2
  31       29       30 1
  32       30        9 2
  33       30        5 1
  34        6       31 2
  35       31        3 1
  36       31       32 1
  37       32       33 ar
  38       33       34 ar
  39       34       35 ar
  40       35       36 ar
  41       36       37 ar
  42       37       32 ar
  43        1       38 1
  44        1       39 1
  45        1       40 1
  46        2       41 1
  47        2       42 1
  48       13       43 1
  49       16       44 1
  50       16       45 1
  51       19       46 1
  52       20       47 1
  53       22       48 1
  54       23       49 1
  55       24       50 1
  56       25       51 1
  57       27       52 1
  58       28       53 1
  59       29       54 1
  60       33       55 1
  61       34       56 1
  62       35       57 1
  63       36       58 1
  64       37       59 1

@<TRIPOS>MOLECULE

  59   64
SMALL
USER_CHARGES
@<TRIPOS>ATOM
   1 C1          10.2980    -1.0759     0.1024 C.3          1    LIG   0.0000
   2 C2           9.8668     0.3181    -0.3234 C.3          1    LIG   0.0000
   3 C3           8.5972     0.7044     0.4182 C.2          1    LIG   0.0000
   4 N4           7.3701     0.4875     0.0259 N.2          1    LIG   0.0000
   5 N5           6.5214     0.9579     0.9159 N.pl3        1    LIG   0.0000
   6 C6           7.1976     1.5111     1.9516 C.2          1    LIG   0.0000
   7 N7           6.5243     2.0630     3.0037 N.2          1    LIG   0.0000
   8 N8           5.2552     2.0756     3.0316 N.2          1    LIG   0.0000
   9 C9           4.4976     1.5396     2.0198 C.2          1    LIG   0.0000
  10 C10          3.0741     1.5450     2.0312 C.2          1    LIG   0.0000
  11 O11          2.4590     2.0386     2.9640 O.2          1    LIG   0.0000
  12 N12          2.3504     1.0000     1.0000 N.pl3        1    LIG   0.0000
  13 N13          1.0000     1.0000     1.0000 N.am         1    LIG   0.0000
  14 C14          0.3150     1.0444    -0.1856 C.2          1    LIG   0.0000
  15 O15          0.9150     1.0833    -1.2241 O.2          1    LIG   0.0000
  16 C16         -1.2050     1.0444    -0.1856 C.3          1    LIG   0.0000
  17 O17         -1.6783     1.0945    -1.5235 O.3          1    LIG   0.0000
  18 C18         -1.6726     2.3160    -2.0963 C.ar         1    LIG   0.0000
  19 C19         -1.2183     3.4132    -1.3716 C.ar         1    LIG   0.0000
  20 C20         -1.2140     4.6696    -1.9691 C.ar         1    LIG   0.0000
  21 C21         -1.6600     4.8189    -3.2780 C.ar         1    LIG   0.0000
  22 C22         -1.6497     6.0809    -3.8633 C.ar         1    LIG   0.0000
  23 C23         -2.0955     6.2295    -5.1728 C.ar         1    LIG   0.0000
  24 C24         -2.5457     5.1225    -5.8843 C.ar         1    LIG   0.0000
  25 C25         -2.5564     3.8603    -5.3000 C.ar         1    LIG   0.0000
  26 C26         -2.1111     3.7112    -3.9903 C.ar         1    LIG   0.0000
  27 C27         -2.1212     2.4497    -3.4058 C.ar         1    LIG   0.0000
  28 C28          3.0176     0.4403    -0.0587 C.2          1    LIG   0.0000
  29 C29          4.3866     0.4182    -0.1017 C.2          1    LIG   0.0000
  30 C30          5.1529     0.9773     0.9561 C.2          1    LIG   0.0000
  31 C31          8.5221     1.3642     1.6595 C.2          1    LIG   0.0000
  32 C32          9.6385     1.8047     2.4737 C.ar         1    LIG   0.0000
  33 C33         10.1752     0.9467     3.4280 C.ar         1    LIG   0.0000
  34 C34         11.2453     1.3777     4.2050 C.ar         1    LIG   0.0000
  35 C35         11.7679     2.6545     4.0234 C.ar         1    LIG   0.0000
  36 C36         11.2251     3.5059     3.0665 C.ar         1    LIG   0.0000
  37 C37         10.1542     3.0829     2.2855 C.ar         1    LIG   0.0000
  38 H           11.1331    -1.3300    -0.3855 H            1    LIG   0.0000
  39 H           10.4714    -1.0849     1.0872 H            1    LIG   0.0000
  40 H            9.5732    -1.7298    -0.1145 H            1    LIG   0.0000
  41 H           10.5916     0.9721    -0.1066 H            1    LIG   0.0000
  42 H            9.6934     0.3271    -1.3082 H            1    LIG   0.0000
  43 H            0.5000     0.9676     1.8654 H            1    LIG   0.0000
  44 H           -1.5383     0.2108     0.2549 H            1    LIG   0.0000
  45 H           -1.5383     1.8427     0.3160 H            1    LIG   0.0000
  46 H           -0.8982     3.3001    -0.4310 H            1    LIG   0.0000
  47 H           -0.8903     5.4654    -1.4574 H            1    LIG   0.0000
  48 H           -1.3250     6.8738    -3.3477 H            1    LIG   0.0000
  49 H           -2.0921     7.1324    -5.6026 H            1    LIG   0.0000
  50 H           -2.8649     5.2351    -6.8252 H            1    LIG   0.0000
  51 H           -2.8809     3.0677    -5.8162 H            1    LIG   0.0000
  52 H           -2.4448     1.6537    -3.9173 H            1    LIG   0.0000
  53 H            2.4959     0.0413    -0.8128 H            1    LIG   0.0000
  54 H            4.8510     0.0047    -0.8849 H            1    LIG   0.0000
  55 H            9.7958     0.0301     3.5541 H            1    LIG   0.0000
  56 H           11.6393     0.7697     4.8943 H            1    LIG   0.0000
  57 H           12.5373     2.9616     4.5834 H            1    LIG   0.0000
  58 H           11.6048     4.4223     2.9398 H            1    LIG   0.0000
  59 H            9.7596     3.6909     1.5967 H            1    LIG   0.0000
@<TRIPOS>BOND
   1        1        2 1
   2        2        3 1
   3        3        4 2
   4        4        5 1
   5        5        6 1
   6        6        7 1
   7        7        8 2
   8        8        9 1
   9        9       10 1
  10       10       11 2
  11       10       12 1
  12       12       13 1
  13       13       14 am
  14       14       15 2
  15       14       16 1
  16       16       17 1
  17       17       18 1
  18       18       19 ar
  19       19       20 ar
  20       20       21 ar
  21       21       22 ar
  22       22       23 ar
  23       23       24 ar
  24       24       25 ar
  25       25       26 ar
  26       26       21 ar
  27       26       27 ar
  28       27       18 ar
  29       12       28 1
  30       28       29 2
  31       29       30 1
  32       30        9 2
  33       30        5 1
  34        6       31 2
  35       31        3 1
  36       31       32 1
  37       32       33 ar
  38       33       34 ar
  39       34       35 ar
  40       35       36 ar
  41       36       37 ar
  42       37       32 ar
  43        1       38 1
  44        1       39 1
  45        1       40 1
  46        2       41 1
  47        2       42 1
  48       13       43 1
  49       16       44 1
  50       16       45 1
  51       19       46 1
  52       20       47 1
  53       22       48 1
  54       23       49 1
  55       24       50 1
  56       25       51 1
  57       27       52 1
  58       28       53 1
  59       29       54 1
  60       33       55 1
  61       34       56 1
  62       35       57 1
  63       36       58 1
  64       37       59 1

@<TRIPOS>MOLECULE

  59   64
SMALL
USER_CHARGES
@<TRIPOS>ATOM
   1 C1          10.2818     1.4546    -1.2435 C.3          1    LIG   0.0000
   2 C2           9.8668     0.3181    -0.3234 C.3          1    LIG   0.0000
   3 C3           8.5972     0.7044     0.4182 C.2          1    LIG   0.0000
   4 N4           7.3701     0.4875     0.0259 N.2          1    LIG   0.0000
   5 N5           6.5214     0.9579     0.9159 N.pl3        1    LIG   0.0000
   6 C6           7.1976     1.5111     1.9516 C.2          1    LIG   0.0000
   7 N7           6.5243     2.0630     3.0037 N.2          1    LIG   0.0000
   8 N8           5.2552     2.0756     3.0316 N.2          1    LIG   0.0000
   9 C9           4.4976     1.5396     2.0198 C.2          1    LIG   0.0000
  10 C10          3.0741     1.5450     2.0312 C.2          1    LIG   0.0000
  11 O11          2.4590     2.0386     2.9640 O.2          1    LIG   0.0000
  12 N12          2.3504     1.0000     1.0000 N.pl3        1    LIG   0.0000
  13 N13          1.0000     1.0000     1.0000 N.am         1    LIG   0.0000
  14 C14          0.3150     1.0444    -0.1856 C.2          1    LIG   0.0000
  15 O15          0.9150     1.0833    -1.2241 O.2          1    LIG   0.0000
  16 C16         -1.2050     1.0444    -0.1856 C.3          1    LIG   0.0000
  17 O17         -1.6783     1.0945    -1.5235 O.3          1    LIG   0.0000
  18 C18         -3.0200     1.0998    -1.6651 C.ar         1    LIG   0.0000
  19 C19         -3.8310     1.0599    -0.5354 C.ar         1    LIG   0.0000
  20 C20         -5.2137     1.0669    -0.6889 C.ar         1    LIG   0.0000
  21 C21         -5.7719     1.1143    -1.9619 C.ar         1    LIG   0.0000
  22 C22         -7.1561     1.1214    -2.1008 C.ar         1    LIG   0.0000
  23 C23         -7.7139     1.1693    -3.3745 C.ar         1    LIG   0.0000
  24 C24         -6.8896     1.2097    -4.4939 C.ar         1    LIG   0.0000
  25 C25         -5.5055     1.2027    -4.3560 C.ar         1    LIG   0.0000
  26 C26         -4.9472     1.1543    -3.0826 C.ar         1    LIG   0.0000
  27 C27         -3.5638     1.1477    -2.9442 C.ar         1    LIG   0.0000
  28 C28          3.0176     0.4403    -0.0587 C.2          1    LIG   0.0000
  29 C29          4.3866     0.4182    -0.1017 C.2          1    LIG   0.0000
  30 C30          5.1529     0.9773     0.9561 C.2          1    LIG   0.0000
  31 C31          8.5221     1.3642     1.6595 C.2          1    LIG   0.0000
  32 C32          9.6385     1.8047     2.4737 C.ar         1    LIG   0.0000
  33 C33         10.1752     0.9467     3.4280 C.ar         1    LIG   0.0000
  34 C34         11.2453     1.3777     4.2050 C.ar         1    LIG   0.0000
  35 C35         11.7679     2.6545     4.0234 C.ar         1    LIG   0.0000
  36 C36         11.2251     3.5059     3.0665 C.ar         1    LIG   0.0000
  37 C37         10.1542     3.0829     2.2855 C.ar         1    LIG   0.0000
  38 H           11.1169     1.2004    -1.7314 H            1    LIG   0.0000
  39 H            9.5517     1.6330    -1.9031 H            1    LIG   0.0000
  40 H           10.4498     2.2779    -0.7015 H            1    LIG   0.0000
  41 H            9.6987    -0.5052    -0.8655 H            1    LIG   0.0000
  42 H           10.5969     0.1397     0.3362 H            1    LIG   0.0000
  43 H            0.5000     0.9676     1.8654 H            1    LIG   0.0000
  44 H           -1.5383     0.2108     0.2549 H            1    LIG   0.0000
  45 H           -1.5383     1.8427     0.3160 H            1    LIG   0.0000
  46 H           -3.4242     1.0265     0.3776 H            1    LIG   0.0000
  47 H           -5.8062     1.0379     0.1161 H            1    LIG   0.0000
  48 H           -7.7446     1.0923    -1.2928 H            1    LIG   0.0000
  49 H           -8.7078     1.1747    -3.4851 H            1    LIG   0.0000
  50 H           -7.2959     1.2441    -5.4069 H            1    LIG   0.0000
  51 H           -4.9175     1.2321    -5.1644 H            1    LIG   0.0000
  52 H           -2.9710     1.1767    -3.7490 H            1    LIG   0.0000
  53 H            2.4959     0.0413    -0.8128 H            1    LIG   0.0000
  54 H            4.8510     0.0047    -0.8849 H            1    LIG   0.0000
  55 H            9.7958     0.0301     3.5541 H            1    LIG   0.0000
  56 H           11.6393     0.7697     4.8943 H            1    LIG   0.0000
  57 H           12.5373     2.9616     4.5834 H            1    LIG   0.0000
  58 H           11.6048     4.4223     2.9398 H            1    LIG   0.0000
  59 H            9.7596     3.6909     1.5967 H            1    LIG   0.0000
@<TRIPOS>BOND
   1        1        2 1
   2        2        3 1
   3        3        4 2
   4        4        5 1
   5        5        6 1
   6        6        7 1
   7        7        8 2
   8        8        9 1
   9        9       10 1
  10       10       11 2
  11       10       12 1
  12       12       13 1
  13       13       14 am
  14       14       15 2
  15       14       16 1
  16       16       17 1
  17       17       18 1
  18       18       19 ar
  19       19       20 ar
  20       20       21 ar
  21       21       22 ar
  22       22       23 ar
  23       23       24 ar
  24       24       25 ar
  25       25       26 ar
  26       26       21 ar
  27       26       27 ar
  28       27       18 ar
  29       12       28 1
  30       28       29 2
  31       29       30 1
  32       30        9 2
  33       30        5 1
  34        6       31 2
  35       31        3 1
  36       31       32 1
  37       32       33 ar
  38       33       34 ar
  39       34       35 ar
  40       35       36 ar
  41       36       37 ar
  42       37       32 ar
  43        1       38 1
  44        1       39 1
  45        1       40 1
  46        2       41 1
  47        2       42 1
  48       13       43 1
  49       16       44 1
  50       16       45 1
  51       19       46 1
  52       20       47 1
  53       22       48 1
  54       23       49 1
  55       24       50 1
  56       25       51 1
  57       27       52 1
  58       28       53 1
  59       29       54 1
  60       33       55 1
  61       34       56 1
  62       35       57 1
  63       36       58 1
  64       37       59 1

@<TRIPOS>MOLECULE

  59   64
SMALL
USER_CHARGES
@<TRIPOS>ATOM
   1 C1          10.2818     1.4546    -1.2435 C.3          1    LIG   0.0000
   2 C2           9.8668     0.3181    -0.3234 C.3          1    LIG   0.0000
   3 C3           8.5972     0.7044     0.4182 C.2          1    LIG   0.0000
   4 N4           7.3701     0.4875     0.0259 N.2          1    LIG   0.0000
   5 N5           6.5214     0.9579     0.9159 N.pl3        1    LIG   0.0000
   6 C6           7.1976     1.5111     1.9516 C.2          1    LIG   0.0000
   7 N7           6.5243     2.0630     3.0037 N.2          1    LIG   0.0000
   8 N8           5.2552     2.0756     3.0316 N.2          1    LIG   0.0000
   9 C9           4.4976     1.5396     2.0198 C.2          1    LIG   0.0000
  10 C10          3.0741     1.5450     2.0312 C.2          1    LIG   0.0000
  11 O11          2.4590     2.0386     2.9640 O.2          1    LIG   0.0000
  12 N12          2.3504     1.0000     1.0000 N.pl3        1    LIG   0.0000
  13 N13          1.0000     1.0000     1.0000 N.am         1    LIG   0.0000
  14 C14          0.3150     1.0444    -0.1856 C.2          1    LIG   0.0000
  15 O15          0.9150     1.0833    -1.2241 O.2          1    LIG   0.0000
  16 C16         -1.2050     1.0444    -0.1856 C.3          1    LIG   0.0000
  17 O17         -1.6783     1.0945    -1.5235 O.3          1    LIG   0.0000
  18 C18         -3.0200     1.0998    -1.6651 C.ar         1    LIG   0.0000
  19 C19         -3.5769     1.1451    -2.9391 C.ar         1    LIG   0.0000
  20 C20         -4.9612     1.1490    -3.0776 C.ar         1    LIG   0.0000
  21 C21         -5.7733     1.1070    -1.9492 C.ar         1    LIG   0.0000
  22 C22         -7.1560     1.1109    -2.1024 C.ar         1    LIG   0.0000
  23 C23         -7.9677     1.0683    -0.9733 C.ar         1    LIG   0.0000
  24 C24         -7.3956     1.0224     0.2936 C.ar         1    LIG   0.0000
  25 C25         -6.0132     1.0185     0.4477 C.ar         1    LIG   0.0000
  26 C26         -5.2010     1.0615    -0.6811 C.ar         1    LIG   0.0000
  27 C27         -3.8192     1.0572    -0.5277 C.ar         1    LIG   0.0000
  28 C28          3.0176     0.4403    -0.0587 C.2          1    LIG   0.0000
  29 C29          4.3866     0.4182    -0.1017 C.2          1    LIG   0.0000
  30 C30          5.1529     0.9773     0.9561 C.2          1    LIG   0.0000
  31 C31          8.5221     1.3642     1.6595 C.2          1    LIG   0.0000
  32 C32          9.6385     1.8047     2.4737 C.ar         1    LIG   0.0000
  33 C33         10.1752     0.9467     3.4280 C.ar         1    LIG   0.0000
  34 C34         11.2453     1.3777     4.2050 C.ar         1    LIG   0.0000
  35 C35         11.7679     2.6545     4.0234 C.ar         1    LIG   0.0000
  36 C36         11.2251     3.5059     3.0665 C.ar         1    LIG   0.0000
  37 C37         10.1542     3.0829     2.2855 C.ar         1    LIG   0.0000
  38 H           11.1169     1.2004    -1.7314 H            1    LIG   0.0000
  39 H            9.5517     1.6330    -1.9031 H            1    LIG   0.0000
  40 H           10.4498     2.2779    -0.7015 H            1    LIG   0.0000
  41 H            9.6987    -0.5052    -0.8655 H            1    LIG   0.0000
  42 H           10.5969     0.1397     0.3362 H            1    LIG   0.0000
  43 H            0.5000     0.9676     1.8654 H            1    LIG   0.0000
  44 H           -1.5383     0.2108     0.2549 H            1    LIG   0.0000
  45 H           -1.5383     1.8427     0.3160 H            1    LIG   0.0000
  46 H           -2.9883     1.1745    -3.7470 H            1    LIG   0.0000
  47 H           -5.3725     1.1819    -3.9885 H            1    LIG   0.0000
  48 H           -7.5626     1.1439    -3.0154 H            1    LIG   0.0000
  49 H           -8.9628     1.0708    -1.0726 H            1    LIG   0.0000
  50 H           -7.9838     0.9919     1.1016 H            1    LIG   0.0000
  51 H           -5.6071     0.9852     1.3609 H            1    LIG   0.0000
  52 H           -3.4077     1.0241     0.3832 H            1    LIG   0.0000
  53 H            2.4959     0.0413    -0.8128 H            1    LIG   0.0000
  54 H            4.8510     0.0047    -0.8849 H            1    LIG   0.0000
  55 H            9.7958     0.0301     3.5541 H            1    LIG   0.0000
  56 H           11.6393     0.7697     4.8943 H            1    LIG   0.0000
  57 H           12.5373     2.9616     4.5834 H            1    LIG   0.0000
  58 H           11.6048     4.4223     2.9398 H            1    LIG   0.0000
  59 H            9.7596     3.6909     1.5967 H            1    LIG   0.0000
@<TRIPOS>BOND
   1        1        2 1
   2        2        3 1
   3        3        4 2
   4        4        5 1
   5        5        6 1
   6        6        7 1
   7        7        8 2
   8        8        9 1
   9        9       10 1
  10       10       11 2
  11       10       12 1
  12       12       13 1
  13       13       14 am
  14       14       15 2
  15       14       16 1
  16       16       17 1
  17       17       18 1
  18       18       19 ar
  19       19       20 ar
  20       20       21 ar
  21       21       22 ar
  22       22       23 ar
  23       23       24 ar
  24       24       25 ar
  25       25       26 ar
  26       26       21 ar
  27       26       27 ar
  28       27       18 ar
  29       12       28 1
  30       28       29 2
  31       29       30 1
  32       30        9 2
  33       30        5 1
  34        6       31 2
  35       31        3 1
  36       31       32 1
  37       32       33 ar
  38       33       34 ar
  39       34       35 ar
  40       35       36 ar
  41       36       37 ar
  42       37       32 ar
  43        1       38 1
  44        1       39 1
  45        1       40 1
  46        2       41 1
  47        2       42 1
  48       13       43 1
  49       16       44 1
  50       16       45 1
  51       19       46 1
  52       20       47 1
  53       22       48 1
  54       23       49 1
  55       24       50 1
  56       25       51 1
  57       27       52 1
  58       28       53 1
  59       29       54 1
  60       33       55 1
  61       34       56 1
  62       35       57 1
  63       36       58 1
  64       37       59 1

@<TRIPOS>MOLECULE

  59   64
SMALL
USER_CHARGES
@<TRIPOS>ATOM
   1 C1          10.2818     1.4546    -1.2435 C.3          1    LIG   0.0000
   2 C2           9.8668     0.3181    -0.3234 C.3          1    LIG   0.0000
   3 C3           8.5972     0.7044     0.4182 C.2          1    LIG   0.0000
   4 N4           7.3701     0.4875     0.0259 N.2          1    LIG   0.0000
   5 N5           6.5214     0.9579     0.9159 N.pl3        1    LIG   0.0000
   6 C6           7.1976     1.5111     1.9516 C.2          1    LIG   0.0000
   7 N7           6.5243     2.0630     3.0037 N.2          1    LIG   0.0000
   8 N8           5.2552     2.0756     3.0316 N.2          1    LIG   0.0000
   9 C9           4.4976     1.5396     2.0198 C.2          1    LIG   0.0000
  10 C10          3.0741     1.5450     2.0312 C.2          1    LIG   0.0000
  11 O11          2.4590     2.0386     2.9640 O.2          1    LIG   0.0000
  12 N12          2.3504     1.0000     1.0000 N.pl3        1    LIG   0.0000
  13 N13          1.0000     1.0000     1.0000 N.am         1    LIG   0.0000
  14 C14          0.3150     1.0444    -0.1856 C.2          1    LIG   0.0000
  15 O15          0.9150     1.0833    -1.2241 O.2          1    LIG   0.0000
  16 C16         -1.2050     1.0444    -0.1856 C.3          1    LIG   0.0000
  17 O17         -1.6783     1.0945    -1.5235 O.3          1    LIG   0.0000
  18 C18         -1.6726    -0.0808    -2.1860 C.ar         1    LIG   0.0000
  19 C19         -1.2228    -1.2301    -1.5439 C.ar         1    LIG   0.0000
  20 C20         -1.2209    -2.4387    -2.2328 C.ar         1    LIG   0.0000
  21 C21         -1.6664    -2.4896    -3.5494 C.ar         1    LIG   0.0000
  22 C22         -1.6595    -3.7050    -4.2262 C.ar         1    LIG   0.0000
  23 C23         -2.1058    -3.7553    -5.5430 C.ar         1    LIG   0.0000
  24 C24         -2.5532    -2.5977    -6.1706 C.ar         1    LIG   0.0000
  25 C25         -2.5604    -1.3820    -5.4948 C.ar         1    LIG   0.0000
  26 C26         -2.1139    -1.3311    -4.1781 C.ar         1    LIG   0.0000
  27 C27         -2.1212    -0.1163    -3.5019 C.ar         1    LIG   0.0000
  28 C28          3.0176     0.4403    -0.0587 C.2          1    LIG   0.0000
  29 C29          4.3866     0.4182    -0.1017 C.2          1    LIG   0.0000
  30 C30          5.1529     0.9773     0.9561 C.2          1    LIG   0.0000
  31 C31          8.5221     1.3642     1.6595 C.2          1    LIG   0.0000
  32 C32          9.6385     1.8047     2.4737 C.ar         1    LIG   0.0000
  33 C33         10.1752     0.9467     3.4280 C.ar         1    LIG   0.0000
  34 C34         11.2453     1.3777     4.2050 C.ar         1    LIG   0.0000
  35 C35         11.7679     2.6545     4.0234 C.ar         1    LIG   0.0000
  36 C36         11.2251     3.5059     3.0665 C.ar         1    LIG   0.0000
  37 C37         10.1542     3.0829     2.2855 C.ar         1    LIG   0.0000
  38 H           11.1169     1.2004    -1.7314 H            1    LIG   0.0000
  39 H            9.5517     1.6330    -1.9031 H            1    LIG   0.0000
  40 H           10.4498     2.2779    -0.7015 H            1    LIG   0.0000
  41 H            9.6987    -0.5052    -0.8655 H            1    LIG   0.0000
  42 H           10.5969     0.1397     0.3362 H            1    LIG   0.0000
  43 H            0.5000     0.9676     1.8654 H            1    LIG   0.0000
  44 H           -1.5383     0.2108     0.2549 H            1    LIG   0.0000
  45 H           -1.5383     1.8427     0.3160 H            1    LIG   0.0000
  46 H           -0.9042    -1.1878    -0.5969 H            1    LIG   0.0000
  47 H           -0.8992    -3.2710    -1.7814 H            1    LIG   0.0000
  48 H           -1.3369    -4.5347    -3.7705 H            1    LIG   0.0000
  49 H           -2.1048    -4.6241    -6.0383 H            1    LIG   0.0000
  50 H           -2.8728    -2.6397    -7.1172 H            1    LIG   0.0000
  51 H           -2.8833    -0.5527    -5.9509 H            1    LIG   0.0000
  52 H           -2.4429     0.7161    -3.9531 H            1    LIG   0.0000
  53 H            2.4959     0.0413    -0.8128 H            1    LIG   0.0000
  54 H            4.8510     0.0047    -0.8849 H            1    LIG   0.0000
  55 H            9.7958     0.0301     3.5541 H            1    LIG   0.0000
  56 H           11.6393     0.7697     4.8943 H            1    LIG   0.0000
  57 H           12.5373     2.9616     4.5834 H            1    LIG   0.0000
  58 H           11.6048     4.4223     2.9398 H            1    LIG   0.0000
  59 H            9.7596     3.6909     1.5967 H            1    LIG   0.0000
@<TRIPOS>BOND
   1        1        2 1
   2        2        3 1
   3        3        4 2
   4        4        5 1
   5        5        6 1
   6        6        7 1
   7        7        8 2
   8        8        9 1
   9        9       10 1
  10       10       11 2
  11       10       12 1
  12       12       13 1
  13       13       14 am
  14       14       15 2
  15       14       16 1
  16       16       17 1
  17       17       18 1
  18       18       19 ar
  19       19       20 ar
  20       20       21 ar
  21       21       22 ar
  22       22       23 ar
  23       23       24 ar
  24       24       25 ar
  25       25       26 ar
  26       26       21 ar
  27       26       27 ar
  28       27       18 ar
  29       12       28 1
  30       28       29 2
  31       29       30 1
  32       30        9 2
  33       30        5 1
  34        6       31 2
  35       31        3 1
  36       31       32 1
  37       32       33 ar
  38       33       34 ar
  39       34       35 ar
  40       35       36 ar
  41       36       37 ar
  42       37       32 ar
  43        1       38 1
  44        1       39 1
  45        1       40 1
  46        2       41 1
  47        2       42 1
  48       13       43 1
  49       16       44 1
  50       16       45 1
  51       19       46 1
  52       20       47 1
  53       22       48 1
  54       23       49 1
  55       24       50 1
  56       25       51 1
  57       27       52 1
  58       28       53 1
  59       29       54 1
  60       33       55 1
  61       34       56 1
  62       35       57 1
  63       36       58 1
  64       37       59 1

@<TRIPOS>MOLECULE

  59   64
SMALL
USER_CHARGES
@<TRIPOS>ATOM
   1 C1          10.2818     1.4546    -1.2435 C.3          1    LIG   0.0000
   2 C2           9.8668     0.3181    -0.3234 C.3          1    LIG   0.0000
   3 C3           8.5972     0.7044     0.4182 C.2          1    LIG   0.0000
   4 N4           7.3701     0.4875     0.0259 N.2          1    LIG   0.0000
   5 N5           6.5214     0.9579     0.9159 N.pl3        1    LIG   0.0000
   6 C6           7.1976     1.5111     1.9516 C.2          1    LIG   0.0000
   7 N7           6.5243     2.0630     3.0037 N.2          1    LIG   0.0000
   8 N8           5.2552     2.0756     3.0316 N.2          1    LIG   0.0000
   9 C9           4.4976     1.5396     2.0198 C.2          1    LIG   0.0000
  10 C10          3.0741     1.5450     2.0312 C.2          1    LIG   0.0000
  11 O11          2.4590     2.0386     2.9640 O.2          1    LIG   0.0000
  12 N12          2.3504     1.0000     1.0000 N.pl3        1    LIG   0.0000
  13 N13          1.0000     1.0000     1.0000 N.am         1    LIG   0.0000
  14 C14          0.3150     1.0444    -0.1856 C.2          1    LIG   0.0000
  15 O15          0.9150     1.0833    -1.2241 O.2          1    LIG   0.0000
  16 C16         -1.2050     1.0444    -0.1856 C.3          1    LIG   0.0000
  17 O17         -1.6783     1.0945    -1.5235 O.3          1    LIG   0.0000
  18 C18         -1.6726     2.3160    -2.0963 C.ar         1    LIG   0.0000
  19 C19         -2.1210     2.4640    -3.4049 C.ar         1    LIG   0.0000
  20 C20         -2.1134     3.7268    -3.9887 C.ar         1    LIG   0.0000
  21 C21         -1.6615     4.8251    -3.2648 C.ar         1    LIG   0.0000
  22 C22         -1.6600     6.0822    -3.8608 C.ar         1    LIG   0.0000
  23 C23         -1.2083     7.1804    -3.1359 C.ar         1    LIG   0.0000
  24 C24         -0.7641     7.0160    -1.8283 C.ar         1    LIG   0.0000
  25 C25         -0.7653     5.7596    -1.2315 C.ar         1    LIG   0.0000
  26 C26         -1.2164     4.6609    -1.9561 C.ar         1    LIG   0.0000
  27 C27         -1.2182     3.4048    -1.3600 C.ar         1    LIG   0.0000
  28 C28          3.0176     0.4403    -0.0587 C.2          1    LIG   0.0000
  29 C29          4.3866     0.4182    -0.1017 C.2          1    LIG   0.0000
  30 C30          5.1529     0.9773     0.9561 C.2          1    LIG   0.0000
  31 C31          8.5221     1.3642     1.6595 C.2          1    LIG   0.0000
  32 C32          9.6385     1.8047     2.4737 C.ar         1    LIG   0.0000
  33 C33         10.1752     0.9467     3.4280 C.ar         1    LIG   0.0000
  34 C34         11.2453     1.3777     4.2050 C.ar         1    LIG   0.0000
  35 C35         11.7679     2.6545     4.0234 C.ar         1    LIG   0.0000
  36 C36         11.2251     3.5059     3.0665 C.ar         1    LIG   0.0000
  37 C37         10.1542     3.0829     2.2855 C.ar         1    LIG   0.0000
  38 H           11.1169     1.2004    -1.7314 H            1    LIG   0.0000
  39 H            9.5517     1.6330    -1.9031 H            1    LIG   0.0000
  40 H           10.4498     2.2779    -0.7015 H            1    LIG   0.0000
  41 H            9.6987    -0.5052    -0.8655 H            1    LIG   0.0000
  42 H           10.5969     0.1397     0.3362 H            1    LIG   0.0000
  43 H            0.5000     0.9676     1.8654 H            1    LIG   0.0000
  44 H           -1.5383     0.2108     0.2549 H            1    LIG   0.0000
  45 H           -1.5383     1.8427     0.3160 H            1    LIG   0.0000
  46 H           -2.4453     1.6710    -3.9205 H            1    LIG   0.0000
  47 H           -2.4328     3.8449    -4.9289 H            1    LIG   0.0000
  48 H           -1.9804     6.1952    -4.8013 H            1    LIG   0.0000
  49 H           -1.2031     8.0883    -3.5552 H            1    LIG   0.0000
  50 H           -0.4406     7.8090    -1.3119 H            1    LIG   0.0000
  51 H           -0.4450     5.6471    -0.2909 H            1    LIG   0.0000
  52 H           -0.8989     3.2866    -0.4198 H            1    LIG   0.0000
  53 H            2.4959     0.0413    -0.8128 H            1    LIG   0.0000
  54 H            4.8510     0.0047    -0.8849 H            1    LIG   0.0000
  55 H            9.7958     0.0301     3.5541 H            1    LIG   0.0000
  56 H           11.6393     0.7697     4.8943 H            1    LIG   0.0000
  57 H           12.5373     2.9616     4.5834 H            1    LIG   0.0000
  58 H           11.6048     4.4223     2.9398 H            1    LIG   0.0000
  59 H            9.7596     3.6909     1.5967 H            1    LIG   0.0000
@<TRIPOS>BOND
   1        1        2 1
   2        2        3 1
   3        3        4 2
   4        4        5 1
   5        5        6 1
   6        6        7 1
   7        7        8 2
   8        8        9 1
   9        9       10 1
  10       10       11 2
  11       10       12 1
  12       12       13 1
  13       13       14 am
  14       14       15 2
  15       14       16 1
  16       16       17 1
  17       17       18 1
  18       18       19 ar
  19       19       20 ar
  20       20       21 ar
  21       21       22 ar
  22       22       23 ar
  23       23       24 ar
  24       24       25 ar
  25       25       26 ar
  26       26       21 ar
  27       26       27 ar
  28       27       18 ar
  29       12       28 1
  30       28       29 2
  31       29       30 1
  32       30        9 2
  33       30        5 1
  34        6       31 2
  35       31        3 1
  36       31       32 1
  37       32       33 ar
  38       33       34 ar
  39       34       35 ar
  40       35       36 ar
  41       36       37 ar
  42       37       32 ar
  43        1       38 1
  44        1       39 1
  45        1       40 1
  46        2       41 1
  47        2       42 1
  48       13       43 1
  49       16       44 1
  50       16       45 1
  51       19       46 1
  52       20       47 1
  53       22       48 1
  54       23       49 1
  55       24       50 1
  56       25       51 1
  57       27       52 1
  58       28       53 1
  59       29       54 1
  60       33       55 1
  61       34       56 1
  62       35       57 1
  63       36       58 1
  64       37       59 1

