@<TRIPOS>MOLECULE
*****
 59 64 0 0 0
SMALL
USER_CHARGES

@<TRIPOS>ATOM
      1 C1         10.2980   -0.8153    2.3489 C.3     1  LIG1        0.0000
      2 C2          9.8668   -0.4871    0.9288 C.3     1  LIG1        0.0000
      3 C3          8.5972    0.3483    0.9651 C.2     1  LIG1        0.0000
      4 N4          7.3701   -0.0998    0.9568 N.2     1  LIG1        0.0000
      5 N5          6.5214    0.9061    0.9944 N.pl3   1  LIG1        0.0000
      6 C6          7.1976    2.0797    1.0331 C.2     1  LIG1        0.0000
      7 N7          6.5243    3.2668    1.0813 N.2     1  LIG1        0.0000
      8 N8          5.2552    3.2972    1.0843 N.2     1  LIG1        0.0000
      9 C9          4.4976    2.1530    1.0426 C.2     1  LIG1        0.0000
     10 C10         3.0741    2.1655    1.0436 C.2     1  LIG1        0.0000
     11 O11         2.4590    3.2201    1.0826 O.2     1  LIG1        0.0000
     12 N12         2.3504    1.0000    1.0000 N.am    1  LIG1        0.0000
     13 N13         1.0000    1.0000    1.0000 N.am    1  LIG1        0.0000
     14 C14         0.3150    1.0444   -0.1856 C.2     1  LIG1        0.0000
     15 O15         0.9150    1.0833   -1.2241 O.2     1  LIG1        0.0000
     16 C16        -1.2050    1.0444   -0.1856 C.3     1  LIG1        0.0000
     17 O17        -1.6783    0.9943    1.1522 O.2     1  LIG1        0.0000
     18 C18        -1.6726    2.1696    1.8148 C.3     1  LIG1        0.0000
     19 C19        -1.2228    3.3188    1.1726 C.3     1  LIG1        0.0000
     20 C20        -1.2209    4.5275    1.8616 C.3     1  LIG1        0.0000
     21 C21        -1.6664    4.5784    3.1782 C.3     1  LIG1        0.0000
     22 C22        -1.6595    5.7938    3.8549 C.3     1  LIG1        0.0000
     23 C23        -2.1058    5.8441    5.1717 C.3     1  LIG1        0.0000
     24 C24        -2.5532    4.6865    5.7994 C.3     1  LIG1        0.0000
     25 C25        -2.5604    3.4708    5.1236 C.3     1  LIG1        0.0000
     26 C26        -2.1139    3.4198    3.8069 C.3     1  LIG1        0.0000
     27 C27        -2.1212    2.2050    3.1306 C.3     1  LIG1        0.0000
     28 C28         3.0176   -0.1967    0.9553 C.2     1  LIG1        0.0000
     29 C29         4.3866   -0.2450    0.9530 C.2     1  LIG1        0.0000
     30 C30         5.1529    0.9506    0.9977 C.2     1  LIG1        0.0000
     31 C31         8.5221    1.7533    1.0143 C.2     1  LIG1        0.0000
     32 C32         9.6385    2.6786    1.0400 C.3     1  LIG1        0.0000
     33 C33        10.1752    3.0760    2.2602 C.3     1  LIG1        0.0000
     34 C34        11.2453    3.9644    2.2754 C.3     1  LIG1        0.0000
     35 C35        11.7679    4.4456    1.0788 C.3     1  LIG1        0.0000
     36 C36        11.2251    4.0425   -0.1369 C.3     1  LIG1        0.0000
     37 C37        10.1542    3.1548   -0.1610 C.3     1  LIG1        0.0000
     38 H          11.1331   -1.3648    2.3251 H       1  LIG1        0.0000
     39 H          10.4714    0.0331    2.8491 H       1  LIG1        0.0000
     40 H           9.5732   -1.3301    2.8068 H       1  LIG1        0.0000
     41 H          10.5916    0.0277    0.4709 H       1  LIG1        0.0000
     42 H           9.6934   -1.3354    0.4286 H       1  LIG1        0.0000
     43 H           0.5000    0.9676    1.8654 H       1  LIG1        0.0000
     44 H          -1.5383    1.8779   -0.6262 H       1  LIG1        0.0000
     45 H          -1.5383    0.2461   -0.6872 H       1  LIG1        0.0000
     46 H          -0.9042    3.2766    0.2257 H       1  LIG1        0.0000
     47 H          -0.8992    5.3598    1.4101 H       1  LIG1        0.0000
     48 H          -1.3369    6.6234    3.3993 H       1  LIG1        0.0000
     49 H          -2.1048    6.7128    5.6670 H       1  LIG1        0.0000
     50 H          -2.8728    4.7285    6.7460 H       1  LIG1        0.0000
     51 H          -2.8833    2.6415    5.5796 H       1  LIG1        0.0000
     52 H          -2.4429    1.3726    3.5819 H       1  LIG1        0.0000
     53 H           2.4959   -1.0493    0.9239 H       1  LIG1        0.0000
     54 H           4.8510   -1.1300    0.9195 H       1  LIG1        0.0000
     55 H           9.7958    2.7269    3.1170 H       1  LIG1        0.0000
     56 H          11.6393    4.2574    3.1466 H       1  LIG1        0.0000
     57 H          12.5373    5.0841    1.0930 H       1  LIG1        0.0000
     58 H          11.6048    4.3911   -0.9939 H       1  LIG1        0.0000
     59 H           9.7596    2.8622   -1.0321 H       1  LIG1        0.0000
@<TRIPOS>BOND
     1     1     2    1
     2     2     3    1
     3     3     4    2
     4     4     5    1
     5     5     6    1
     6     6     7    1
     7     7     8    2
     8     8     9    1
     9     9    10    1
    10    10    11    2
    11    10    12   am
    12    12    13    1
    13    13    14   am
    14    14    15    2
    15    14    16    1
    16    16    17    1
    17    17    18    1
    18    18    19   ar
    19    19    20   ar
    20    20    21   ar
    21    21    22   ar
    22    22    23   ar
    23    23    24   ar
    24    24    25   ar
    25    25    26   ar
    26    26    21   ar
    27    26    27   ar
    28    27    18   ar
    29    12    28    1
    30    28    29    2
    31    29    30    1
    32    30     9    2
    33    30     5    1
    34     6    31    2
    35    31     3    1
    36    31    32    1
    37    32    33   ar
    38    33    34   ar
    39    34    35   ar
    40    35    36   ar
    41    36    37   ar
    42    37    32   ar
    43     1    38    1
    44     1    39    1
    45     1    40    1
    46     2    41    1
    47     2    42    1
    48    13    43    1
    49    16    44    1
    50    16    45    1
    51    19    46    1
    52    20    47    1
    53    22    48    1
    54    23    49    1
    55    24    50    1
    56    25    51    1
    57    27    52    1
    58    28    53    1
    59    29    54    1
    60    33    55    1
    61    34    56    1
    62    35    57    1
    63    36    58    1
    64    37    59    1
