@<TRIPOS>MOLECULE
*****
 59 64 0 0 0
SMALL
USER_CHARGES

@<TRIPOS>ATOM
      1 C1         10.2980   -1.0759    0.1024 C.3     1  LIG1        0.0000
      2 C2          9.8668    0.3181   -0.3234 C.3     1  LIG1        0.0000
      3 C3          8.5972    0.7044    0.4182 C.2     1  LIG1        0.0000
      4 N4          7.3701    0.4875    0.0259 N.2     1  LIG1        0.0000
      5 N5          6.5214    0.9579    0.9159 N.pl3   1  LIG1        0.0000
      6 C6          7.1976    1.5111    1.9516 C.2     1  LIG1        0.0000
      7 N7          6.5243    2.0630    3.0037 N.2     1  LIG1        0.0000
      8 N8          5.2552    2.0756    3.0316 N.2     1  LIG1        0.0000
      9 C9          4.4976    1.5396    2.0198 C.2     1  LIG1        0.0000
     10 C10         3.0741    1.5450    2.0312 C.2     1  LIG1        0.0000
     11 O11         2.4590    2.0386    2.9640 O.2     1  LIG1        0.0000
     12 N12         2.3504    1.0000    1.0000 N.am    1  LIG1        0.0000
     13 N13         1.0000    1.0000    1.0000 N.am    1  LIG1        0.0000
     14 C14         0.3150    1.0444   -0.1856 C.2     1  LIG1        0.0000
     15 O15         0.9150    1.0833   -1.2241 O.2     1  LIG1        0.0000
     16 C16        -1.2050    1.0444   -0.1856 C.3     1  LIG1        0.0000
     17 O17        -1.6783    1.0945   -1.5235 O.2     1  LIG1        0.0000
     18 C18        -1.6726    2.3160   -2.0963 C.3     1  LIG1        0.0000
     19 C19        -1.2183    3.4132   -1.3716 C.3     1  LIG1        0.0000
     20 C20        -1.2140    4.6696   -1.9691 C.3     1  LIG1        0.0000
     21 C21        -1.6600    4.8189   -3.2780 C.3     1  LIG1        0.0000
     22 C22        -1.6497    6.0809   -3.8633 C.3     1  LIG1        0.0000
     23 C23        -2.0955    6.2295   -5.1728 C.3     1  LIG1        0.0000
     24 C24        -2.5457    5.1225   -5.8843 C.3     1  LIG1        0.0000
     25 C25        -2.5564    3.8603   -5.3000 C.3     1  LIG1        0.0000
     26 C26        -2.1111    3.7112   -3.9903 C.3     1  LIG1        0.0000
     27 C27        -2.1212    2.4497   -3.4058 C.3     1  LIG1        0.0000
     28 C28         3.0176    0.4403   -0.0587 C.2     1  LIG1        0.0000
     29 C29         4.3866    0.4182   -0.1017 C.2     1  LIG1        0.0000
     30 C30         5.1529    0.9773    0.9561 C.2     1  LIG1        0.0000
     31 C31         8.5221    1.3642    1.6595 C.2     1  LIG1        0.0000
     32 C32         9.6385    1.8047    2.4737 C.3     1  LIG1        0.0000
     33 C33        10.1752    0.9467    3.4280 C.3     1  LIG1        0.0000
     34 C34        11.2453    1.3777    4.2050 C.3     1  LIG1        0.0000
     35 C35        11.7679    2.6545    4.0234 C.3     1  LIG1        0.0000
     36 C36        11.2251    3.5059    3.0665 C.3     1  LIG1        0.0000
     37 C37        10.1542    3.0829    2.2855 C.3     1  LIG1        0.0000
     38 H          11.1331   -1.3300   -0.3855 H       1  LIG1        0.0000
     39 H          10.4714   -1.0849    1.0872 H       1  LIG1        0.0000
     40 H           9.5732   -1.7298   -0.1145 H       1  LIG1        0.0000
     41 H          10.5916    0.9721   -0.1066 H       1  LIG1        0.0000
     42 H           9.6934    0.3271   -1.3082 H       1  LIG1        0.0000
     43 H           0.5000    0.9676    1.8654 H       1  LIG1        0.0000
     44 H          -1.5383    0.2108    0.2549 H       1  LIG1        0.0000
     45 H          -1.5383    1.8427    0.3160 H       1  LIG1        0.0000
     46 H          -0.8982    3.3001   -0.4310 H       1  LIG1        0.0000
     47 H          -0.8903    5.4654   -1.4574 H       1  LIG1        0.0000
     48 H          -1.3250    6.8738   -3.3477 H       1  LIG1        0.0000
     49 H          -2.0921    7.1324   -5.6026 H       1  LIG1        0.0000
     50 H          -2.8649    5.2351   -6.8252 H       1  LIG1        0.0000
     51 H          -2.8809    3.0677   -5.8162 H       1  LIG1        0.0000
     52 H          -2.4448    1.6537   -3.9173 H       1  LIG1        0.0000
     53 H           2.4959    0.0413   -0.8128 H       1  LIG1        0.0000
     54 H           4.8510    0.0047   -0.8849 H       1  LIG1        0.0000
     55 H           9.7958    0.0301    3.5541 H       1  LIG1        0.0000
     56 H          11.6393    0.7697    4.8943 H       1  LIG1        0.0000
     57 H          12.5373    2.9616    4.5834 H       1  LIG1        0.0000
     58 H          11.6048    4.4223    2.9398 H       1  LIG1        0.0000
     59 H           9.7596    3.6909    1.5967 H       1  LIG1        0.0000
@<TRIPOS>BOND
     1     1     2    1
     2     2     3    1
     3     3     4    2
     4     4     5    1
     5     5     6    1
     6     6     7    1
     7     7     8    2
     8     8     9    1
     9     9    10    1
    10    10    11    2
    11    10    12   am
    12    12    13    1
    13    13    14   am
    14    14    15    2
    15    14    16    1
    16    16    17    1
    17    17    18    1
    18    18    19   ar
    19    19    20   ar
    20    20    21   ar
    21    21    22   ar
    22    22    23   ar
    23    23    24   ar
    24    24    25   ar
    25    25    26   ar
    26    26    21   ar
    27    26    27   ar
    28    27    18   ar
    29    12    28    1
    30    28    29    2
    31    29    30    1
    32    30     9    2
    33    30     5    1
    34     6    31    2
    35    31     3    1
    36    31    32    1
    37    32    33   ar
    38    33    34   ar
    39    34    35   ar
    40    35    36   ar
    41    36    37   ar
    42    37    32   ar
    43     1    38    1
    44     1    39    1
    45     1    40    1
    46     2    41    1
    47     2    42    1
    48    13    43    1
    49    16    44    1
    50    16    45    1
    51    19    46    1
    52    20    47    1
    53    22    48    1
    54    23    49    1
    55    24    50    1
    56    25    51    1
    57    27    52    1
    58    28    53    1
    59    29    54    1
    60    33    55    1
    61    34    56    1
    62    35    57    1
    63    36    58    1
    64    37    59    1
