@<TRIPOS>MOLECULE

  21   22
SMALL
USER_CHARGES
@<TRIPOS>ATOM
   1 C1          -0.2305     0.1588     2.0268 C.3          1    LIG   0.0000
   2 S2           1.0000     1.0000     1.0000 S.o2         1    LIG   0.0000
   3 O3           1.8169     0.0210     0.3307 O.2          1    LIG   0.0000
   4 O4           0.3307     1.8169     0.0210 O.2          1    LIG   0.0000
   5 N5           1.9757     1.9757     1.9757 N.pl3        1    LIG   0.0000
   6 C6           3.2855     1.7326     2.2594 C.2          1    LIG   0.0000
   7 N7           3.6943     2.6998     3.0427 N.2          1    LIG   0.0000
   8 C8           2.6768     3.5852     3.2818 C.ar         1    LIG   0.0000
   9 C9           2.6264     4.7553     4.0356 C.ar         1    LIG   0.0000
  10 C10          1.4488     5.4924     4.1332 C.ar         1    LIG   0.0000
  11 F11          1.3904     6.6134     4.8507 F            1    LIG   0.0000
  12 C12          0.3121     5.0395     3.4651 C.ar         1    LIG   0.0000
  13 F13         -0.8261     5.7300     3.5610 F            1    LIG   0.0000
  14 C14          0.4011     3.8679     2.7144 C.ar         1    LIG   0.0000
  15 C15          1.5726     3.1208     2.6004 C.ar         1    LIG   0.0000
  16 H           -0.7978     0.8386     2.4915 H            1    LIG   0.0000
  17 H           -0.8079    -0.4186     1.4494 H            1    LIG   0.0000
  18 H            0.2342    -0.4085     2.7066 H            1    LIG   0.0000
  19 H            3.8318     0.9617     1.9317 H            1    LIG   0.0000
  20 H            3.4466     5.0703     4.5131 H            1    LIG   0.0000
  21 H           -0.4155     3.5478     2.2341 H            1    LIG   0.0000
@<TRIPOS>BOND
   1        1        2 1
   2        2        3 2
   3        2        4 2
   4        2        5 1
   5        5        6 1
   6        6        7 2
   7        7        8 1
   8        8        9 ar
   9        9       10 ar
  10       10       11 1
  11       10       12 ar
  12       12       13 1
  13       12       14 ar
  14       14       15 ar
  15       15        8 ar
  16       15        5 1
  17        1       16 1
  18        1       17 1
  19        1       18 1
  20        6       19 1
  21        9       20 1
  22       14       21 1

@<TRIPOS>MOLECULE

  21   22
SMALL
USER_CHARGES
@<TRIPOS>ATOM
   1 C1          -0.2305     0.1588     2.0268 C.3          1    LIG   0.0000
   2 S2           1.0000     1.0000     1.0000 S.o2         1    LIG   0.0000
   3 O3           1.8169     0.0210     0.3307 O.2          1    LIG   0.0000
   4 O4           0.3307     1.8169     0.0210 O.2          1    LIG   0.0000
   5 N5           1.9757     1.9757     1.9757 N.pl3        1    LIG   0.0000
   6 C6           3.3335     2.0479     1.8961 C.2          1    LIG   0.0000
   7 N7           3.7266     2.9005     2.8097 N.2          1    LIG   0.0000
   8 C8           2.6500     3.3998     3.4940 C.ar         1    LIG   0.0000
   9 C9           2.5613     4.3225     4.5335 C.ar         1    LIG   0.0000
  10 C10          1.3273     4.6686     5.0784 C.ar         1    LIG   0.0000
  11 F11          1.2315     5.5510     6.0721 F            1    LIG   0.0000
  12 C12          0.1740     4.0734     4.5693 C.ar         1    LIG   0.0000
  13 F13         -1.0136     4.3871     5.0914 F            1    LIG   0.0000
  14 C14          0.3002     3.1592     3.5241 C.ar         1    LIG   0.0000
  15 C15          1.5261     2.8054     2.9623 C.ar         1    LIG   0.0000
  16 H           -0.7978     0.8386     2.4915 H            1    LIG   0.0000
  17 H           -0.8079    -0.4186     1.4494 H            1    LIG   0.0000
  18 H            0.2342    -0.4085     2.7066 H            1    LIG   0.0000
  19 H            3.9195     1.5452     1.2605 H            1    LIG   0.0000
  20 H            3.3947     4.7420     4.8934 H            1    LIG   0.0000
  21 H           -0.5295     2.7365     3.1594 H            1    LIG   0.0000
@<TRIPOS>BOND
   1        1        2 1
   2        2        3 2
   3        2        4 2
   4        2        5 1
   5        5        6 1
   6        6        7 2
   7        7        8 1
   8        8        9 ar
   9        9       10 ar
  10       10       11 1
  11       10       12 ar
  12       12       13 1
  13       12       14 ar
  14       14       15 ar
  15       15        8 ar
  16       15        5 1
  17        1       16 1
  18        1       17 1
  19        1       18 1
  20        6       19 1
  21        9       20 1
  22       14       21 1

@<TRIPOS>MOLECULE

  21   22
SMALL
USER_CHARGES
@<TRIPOS>ATOM
   1 C1          -0.2305     0.1588     2.0268 C.3          1    LIG   0.0000
   2 S2           1.0000     1.0000     1.0000 S.o2         1    LIG   0.0000
   3 O3           1.8169     0.0210     0.3307 O.2          1    LIG   0.0000
   4 O4           0.3307     1.8169     0.0210 O.2          1    LIG   0.0000
   5 N5           1.9757     1.9757     1.9757 N.pl3        1    LIG   0.0000
   6 C6           3.0765     1.5472     2.6539 C.2          1    LIG   0.0000
   7 N7           3.5592     2.5826     3.2950 N.2          1    LIG   0.0000
   8 C8           2.7981     3.6950     3.0507 C.ar         1    LIG   0.0000
   9 C9           2.9125     5.0102     3.4946 C.ar         1    LIG   0.0000
  10 C10          1.9905     5.9786     3.1051 C.ar         1    LIG   0.0000
  11 F11          2.0917     7.2396     3.5233 F            1    LIG   0.0000
  12 C12          0.9424     5.6120     2.2623 C.ar         1    LIG   0.0000
  13 F13          0.0449     6.5279     1.8920 F            1    LIG   0.0000
  14 C14          0.8631     4.2880     1.8323 C.ar         1    LIG   0.0000
  15 C15          1.7801     3.3069     2.2068 C.ar         1    LIG   0.0000
  16 H           -0.7978     0.8386     2.4915 H            1    LIG   0.0000
  17 H           -0.8079    -0.4186     1.4494 H            1    LIG   0.0000
  18 H            0.2342    -0.4085     2.7066 H            1    LIG   0.0000
  19 H            3.4461     0.6180     2.6611 H            1    LIG   0.0000
  20 H            3.6666     5.2624     4.1010 H            1    LIG   0.0000
  21 H            0.1116     4.0295     1.2254 H            1    LIG   0.0000
@<TRIPOS>BOND
   1        1        2 1
   2        2        3 2
   3        2        4 2
   4        2        5 1
   5        5        6 1
   6        6        7 2
   7        7        8 1
   8        8        9 ar
   9        9       10 ar
  10       10       11 1
  11       10       12 ar
  12       12       13 1
  13       12       14 ar
  14       14       15 ar
  15       15        8 ar
  16       15        5 1
  17        1       16 1
  18        1       17 1
  19        1       18 1
  20        6       19 1
  21        9       20 1
  22       14       21 1

@<TRIPOS>MOLECULE

  21   22
SMALL
USER_CHARGES
@<TRIPOS>ATOM
   1 C1          -0.2305     0.1588     2.0268 C.3          1    LIG   0.0000
   2 S2           1.0000     1.0000     1.0000 S.o2         1    LIG   0.0000
   3 O3           1.8169     0.0210     0.3307 O.2          1    LIG   0.0000
   4 O4           0.3307     1.8169     0.0210 O.2          1    LIG   0.0000
   5 N5           1.9757     1.9757     1.9757 N.pl3        1    LIG   0.0000
   6 C6           3.3045     2.1978     1.7752 C.2          1    LIG   0.0000
   7 N7           3.7086     2.9962     2.7320 N.2          1    LIG   0.0000
   8 C8           2.6676     3.3118     3.5644 C.ar         1    LIG   0.0000
   9 C9           2.6014     4.1169     4.6990 C.ar         1    LIG   0.0000
  10 C10          1.4043     4.2777     5.3923 C.ar         1    LIG   0.0000
  11 F11          1.3302     5.0464     6.4780 F            1    LIG   0.0000
  12 C12          0.2658     3.6155     4.9354 C.ar         1    LIG   0.0000
  13 F13         -0.8847     3.7513     5.5983 F            1    LIG   0.0000
  14 C14          0.3676     2.8233     3.7925 C.ar         1    LIG   0.0000
  15 C15          1.5556     2.6557     3.0825 C.ar         1    LIG   0.0000
  16 H           -0.7978     0.8386     2.4915 H            1    LIG   0.0000
  17 H           -0.8079    -0.4186     1.4494 H            1    LIG   0.0000
  18 H            0.2342    -0.4085     2.7066 H            1    LIG   0.0000
  19 H            3.8655     1.8224     1.0374 H            1    LIG   0.0000
  20 H            3.4243     4.5857     5.0201 H            1    LIG   0.0000
  21 H           -0.4519     2.3522     3.4660 H            1    LIG   0.0000
@<TRIPOS>BOND
   1        1        2 1
   2        2        3 2
   3        2        4 2
   4        2        5 1
   5        5        6 1
   6        6        7 2
   7        7        8 1
   8        8        9 ar
   9        9       10 ar
  10       10       11 1
  11       10       12 ar
  12       12       13 1
  13       12       14 ar
  14       14       15 ar
  15       15        8 ar
  16       15        5 1
  17        1       16 1
  18        1       17 1
  19        1       18 1
  20        6       19 1
  21        9       20 1
  22       14       21 1

@<TRIPOS>MOLECULE

  21   22
SMALL
USER_CHARGES
@<TRIPOS>ATOM
   1 C1          -0.2305     0.1588     2.0268 C.3          1    LIG   0.0000
   2 S2           1.0000     1.0000     1.0000 S.o2         1    LIG   0.0000
   3 O3           1.8169     0.0210     0.3307 O.2          1    LIG   0.0000
   4 O4           0.3307     1.8169     0.0210 O.2          1    LIG   0.0000
   5 N5           1.9757     1.9757     1.9757 N.pl3        1    LIG   0.0000
   6 C6           2.9556     1.5181     2.8038 C.2          1    LIG   0.0000
   7 N7           3.4815     2.5646     3.3907 N.2          1    LIG   0.0000
   8 C8           2.8685     3.7125     2.9628 C.ar         1    LIG   0.0000
   9 C9           3.0780     5.0502     3.2890 C.ar         1    LIG   0.0000
  10 C10          2.3045     6.0556     2.7142 C.ar         1    LIG   0.0000
  11 F11          2.4976     7.3382     3.0188 F            1    LIG   0.0000
  12 C12          1.3085     5.7037     1.8044 C.ar         1    LIG   0.0000
  13 F13          0.5519     6.6568     1.2562 F            1    LIG   0.0000
  14 C14          1.1316     4.3554     1.4964 C.ar         1    LIG   0.0000
  15 C15          1.9002     3.3364     2.0572 C.ar         1    LIG   0.0000
  16 H           -0.7978     0.8386     2.4915 H            1    LIG   0.0000
  17 H           -0.8079    -0.4186     1.4494 H            1    LIG   0.0000
  18 H            0.2342    -0.4085     2.7066 H            1    LIG   0.0000
  19 H            3.2230     0.5640     2.9382 H            1    LIG   0.0000
  20 H            3.7933     5.2920     3.9447 H            1    LIG   0.0000
  21 H            0.4182     4.1071     0.8411 H            1    LIG   0.0000
@<TRIPOS>BOND
   1        1        2 1
   2        2        3 2
   3        2        4 2
   4        2        5 1
   5        5        6 1
   6        6        7 2
   7        7        8 1
   8        8        9 ar
   9        9       10 ar
  10       10       11 1
  11       10       12 ar
  12       12       13 1
  13       12       14 ar
  14       14       15 ar
  15       15        8 ar
  16       15        5 1
  17        1       16 1
  18        1       17 1
  19        1       18 1
  20        6       19 1
  21        9       20 1
  22       14       21 1

@<TRIPOS>MOLECULE

  21   22
SMALL
USER_CHARGES
@<TRIPOS>ATOM
   1 C1          -0.2305     0.1588     2.0268 C.3          1    LIG   0.0000
   2 S2           1.0000     1.0000     1.0000 S.o2         1    LIG   0.0000
   3 O3           1.8169     0.0210     0.3307 O.2          1    LIG   0.0000
   4 O4           0.3307     1.8169     0.0210 O.2          1    LIG   0.0000
   5 N5           1.9757     1.9757     1.9757 N.pl3        1    LIG   0.0000
   6 C6           1.9628     3.3377     1.9770 C.2          1    LIG   0.0000
   7 N7           2.8526     3.7289     2.8553 N.2          1    LIG   0.0000
   8 C8           3.4551     2.6473     3.4414 C.ar         1    LIG   0.0000
   9 C9           4.4421     2.5554     4.4198 C.ar         1    LIG   0.0000
  10 C10          4.9050     1.3156     4.8537 C.ar         1    LIG   0.0000
  11 F11          5.8480     1.2169     5.7897 F            1    LIG   0.0000
  12 C12          4.3668     0.1596     4.2902 C.ar         1    LIG   0.0000
  13 F13          4.8110    -1.0344     4.6883 F            1    LIG   0.0000
  14 C14          3.3756     0.2895     3.3182 C.ar         1    LIG   0.0000
  15 C15          2.8959     1.5217     2.8762 C.ar         1    LIG   0.0000
  16 H           -0.7978     0.8386     2.4915 H            1    LIG   0.0000
  17 H           -0.8079    -0.4186     1.4494 H            1    LIG   0.0000
  18 H            0.2342    -0.4085     2.7066 H            1    LIG   0.0000
  19 H            1.3837     3.9274     1.4141 H            1    LIG   0.0000
  20 H            4.8235     3.3907     4.8159 H            1    LIG   0.0000
  21 H            2.9899    -0.5420     2.9185 H            1    LIG   0.0000
@<TRIPOS>BOND
   1        1        2 1
   2        2        3 2
   3        2        4 2
   4        2        5 1
   5        5        6 1
   6        6        7 2
   7        7        8 1
   8        8        9 ar
   9        9       10 ar
  10       10       11 1
  11       10       12 ar
  12       12       13 1
  13       12       14 ar
  14       14       15 ar
  15       15        8 ar
  16       15        5 1
  17        1       16 1
  18        1       17 1
  19        1       18 1
  20        6       19 1
  21        9       20 1
  22       14       21 1

@<TRIPOS>MOLECULE

  21   22
SMALL
USER_CHARGES
@<TRIPOS>ATOM
   1 C1          -0.2305     0.1588     2.0268 C.3          1    LIG   0.0000
   2 S2           1.0000     1.0000     1.0000 S.o2         1    LIG   0.0000
   3 O3           1.8169     0.0210     0.3307 O.2          1    LIG   0.0000
   4 O4           0.3307     1.8169     0.0210 O.2          1    LIG   0.0000
   5 N5           1.9757     1.9757     1.9757 N.pl3        1    LIG   0.0000
   6 C6           1.6742     3.2488     2.3546 C.2          1    LIG   0.0000
   7 N7           2.6669     3.6736     3.0963 N.2          1    LIG   0.0000
   8 C8           3.6232     2.7007     3.2199 C.ar         1    LIG   0.0000
   9 C9           4.8374     2.6780     3.9019 C.ar         1    LIG   0.0000
  10 C10          5.6546     1.5507     3.8690 C.ar         1    LIG   0.0000
  11 F11          6.8173     1.5186     4.5188 F            1    LIG   0.0000
  12 C12          5.2409     0.4387     3.1370 C.ar         1    LIG   0.0000
  13 F13          6.0209    -0.6432     3.0872 F            1    LIG   0.0000
  14 C14          4.0165     0.4945     2.4724 C.ar         1    LIG   0.0000
  15 C15          3.1829     1.6117     2.4992 C.ar         1    LIG   0.0000
  16 H           -0.7978     0.8386     2.4915 H            1    LIG   0.0000
  17 H           -0.8079    -0.4186     1.4494 H            1    LIG   0.0000
  18 H            0.2342    -0.4085     2.7066 H            1    LIG   0.0000
  19 H            0.8508     3.7621     2.1123 H            1    LIG   0.0000
  20 H            5.1262     3.4818     4.4220 H            1    LIG   0.0000
  21 H            3.7217    -0.3062     1.9509 H            1    LIG   0.0000
@<TRIPOS>BOND
   1        1        2 1
   2        2        3 2
   3        2        4 2
   4        2        5 1
   5        5        6 1
   6        6        7 2
   7        7        8 1
   8        8        9 ar
   9        9       10 ar
  10       10       11 1
  11       10       12 ar
  12       12       13 1
  13       12       14 ar
  14       14       15 ar
  15       15        8 ar
  16       15        5 1
  17        1       16 1
  18        1       17 1
  19        1       18 1
  20        6       19 1
  21        9       20 1
  22       14       21 1

@<TRIPOS>MOLECULE

  21   22
SMALL
USER_CHARGES
@<TRIPOS>ATOM
   1 C1          -0.2305     0.1588     2.0268 C.3          1    LIG   0.0000
   2 S2           1.0000     1.0000     1.0000 S.o2         1    LIG   0.0000
   3 O3           1.8169     0.0210     0.3307 O.2          1    LIG   0.0000
   4 O4           0.3307     1.8169     0.0210 O.2          1    LIG   0.0000
   5 N5           1.9757     1.9757     1.9757 N.pl3        1    LIG   0.0000
   6 C6           2.3382     3.2558     1.6836 C.2          1    LIG   0.0000
   7 N7           3.0932     3.6749     2.6687 N.2          1    LIG   0.0000
   8 C8           3.2357     2.6940     3.6141 C.ar         1    LIG   0.0000
   9 C9           3.9276     2.6671     4.8226 C.ar         1    LIG   0.0000
  10 C10          3.9280     1.5257     5.6206 C.ar         1    LIG   0.0000
  11 F11          4.5858     1.4901     6.7787 F            1    LIG   0.0000
  12 C12          3.2252     0.4013     5.1902 C.ar         1    LIG   0.0000
  13 F13          3.2282    -0.7030     5.9397 F            1    LIG   0.0000
  14 C14          2.5385     0.4665     3.9784 C.ar         1    LIG   0.0000
  15 C15          2.5219     1.6021     3.1698 C.ar         1    LIG   0.0000
  16 H           -0.7978     0.8386     2.4915 H            1    LIG   0.0000
  17 H           -0.8079    -0.4186     1.4494 H            1    LIG   0.0000
  18 H            0.2342    -0.4085     2.7066 H            1    LIG   0.0000
  19 H            2.0773     3.7769     0.8710 H            1    LIG   0.0000
  20 H            4.4307     3.4781     5.1212 H            1    LIG   0.0000
  21 H            2.0330    -0.3410     3.6744 H            1    LIG   0.0000
@<TRIPOS>BOND
   1        1        2 1
   2        2        3 2
   3        2        4 2
   4        2        5 1
   5        5        6 1
   6        6        7 2
   7        7        8 1
   8        8        9 ar
   9        9       10 ar
  10       10       11 1
  11       10       12 ar
  12       12       13 1
  13       12       14 ar
  14       14       15 ar
  15       15        8 ar
  16       15        5 1
  17        1       16 1
  18        1       17 1
  19        1       18 1
  20        6       19 1
  21        9       20 1
  22       14       21 1

@<TRIPOS>MOLECULE

  21   22
SMALL
USER_CHARGES
@<TRIPOS>ATOM
   1 C1          -0.2305     0.1588     2.0268 C.3          1    LIG   0.0000
   2 S2           1.0000     1.0000     1.0000 S.o2         1    LIG   0.0000
   3 O3           1.8169     0.0210     0.3307 O.2          1    LIG   0.0000
   4 O4           0.3307     1.8169     0.0210 O.2          1    LIG   0.0000
   5 N5           1.9757     1.9757     1.9757 N.pl3        1    LIG   0.0000
   6 C6           1.5959     3.1681     2.5135 C.2          1    LIG   0.0000
   7 N7           2.6163     3.6225     3.1980 N.2          1    LIG   0.0000
   8 C8           3.6685     2.7484     3.1269 C.ar         1    LIG   0.0000
   9 C9           4.9444     2.7889     3.6839 C.ar         1    LIG   0.0000
  10 C10          5.8572     1.7623     3.4549 C.ar         1    LIG   0.0000
  11 F11          7.0796     1.7910     3.9840 F            1    LIG   0.0000
  12 C12          5.4765     0.6876     2.6526 C.ar         1    LIG   0.0000
  13 F13          6.3463    -0.2964     2.4150 F            1    LIG   0.0000
  14 C14          4.1891     0.6772     2.1171 C.ar         1    LIG   0.0000
  15 C15          3.2605     1.6927     2.3407 C.ar         1    LIG   0.0000
  16 H           -0.7978     0.8386     2.4915 H            1    LIG   0.0000
  17 H           -0.8079    -0.4186     1.4494 H            1    LIG   0.0000
  18 H            0.2342    -0.4085     2.7066 H            1    LIG   0.0000
  19 H            0.7066     3.6125     2.4061 H            1    LIG   0.0000
  20 H            5.2086     3.5655     4.2560 H            1    LIG   0.0000
  21 H            3.9186    -0.0968     1.5446 H            1    LIG   0.0000
@<TRIPOS>BOND
   1        1        2 1
   2        2        3 2
   3        2        4 2
   4        2        5 1
   5        5        6 1
   6        6        7 2
   7        7        8 1
   8        8        9 ar
   9        9       10 ar
  10       10       11 1
  11       10       12 ar
  12       12       13 1
  13       12       14 ar
  14       14       15 ar
  15       15        8 ar
  16       15        5 1
  17        1       16 1
  18        1       17 1
  19        1       18 1
  20        6       19 1
  21        9       20 1
  22       14       21 1

@<TRIPOS>MOLECULE

  21   22
SMALL
USER_CHARGES
@<TRIPOS>ATOM
   1 C1          -0.2305     0.1588     2.0268 C.3          1    LIG   0.0000
   2 S2           1.0000     1.0000     1.0000 S.o2         1    LIG   0.0000
   3 O3           1.8169     0.0210     0.3307 O.2          1    LIG   0.0000
   4 O4           0.3307     1.8169     0.0210 O.2          1    LIG   0.0000
   5 N5           1.9757     1.9757     1.9757 N.pl3        1    LIG   0.0000
   6 C6           2.4971     3.1775     1.6029 C.2          1    LIG   0.0000
   7 N7           3.1949     3.6243     2.6176 N.2          1    LIG   0.0000
   8 C8           3.1426     2.7394     3.6619 C.ar         1    LIG   0.0000
   9 C9           3.7096     2.7741     4.9335 C.ar         1    LIG   0.0000
  10 C10          3.5139     1.7283     5.8321 C.ar         1    LIG   0.0000
  11 F11          4.0510     1.7525     7.0512 F            1    LIG   0.0000
  12 C12          2.7407     0.6369     5.4391 C.ar         1    LIG   0.0000
  13 F13          2.5561    -0.3777     6.2865 F            1    LIG   0.0000
  14 C14          2.1832     0.6391     4.1611 C.ar         1    LIG   0.0000
  15 C15          2.3633     1.6797     3.2508 C.ar         1    LIG   0.0000
  16 H           -0.7978     0.8386     2.4915 H            1    LIG   0.0000
  17 H           -0.8079    -0.4186     1.4494 H            1    LIG   0.0000
  18 H            0.2342    -0.4085     2.7066 H            1    LIG   0.0000
  19 H            2.3712     3.6327     0.7214 H            1    LIG   0.0000
  20 H            4.2647     3.5604     5.2049 H            1    LIG   0.0000
  21 H            1.6267    -0.1441     3.8838 H            1    LIG   0.0000
@<TRIPOS>BOND
   1        1        2 1
   2        2        3 2
   3        2        4 2
   4        2        5 1
   5        5        6 1
   6        6        7 2
   7        7        8 1
   8        8        9 ar
   9        9       10 ar
  10       10       11 1
  11       10       12 ar
  12       12       13 1
  13       12       14 ar
  14       14       15 ar
  15       15        8 ar
  16       15        5 1
  17        1       16 1
  18        1       17 1
  19        1       18 1
  20        6       19 1
  21        9       20 1
  22       14       21 1

