@<TRIPOS>MOLECULE
*****
 21 22 0 0 0
SMALL
USER_CHARGES

@<TRIPOS>ATOM
      1 C1         -0.2305    0.1588    2.0268 C.3     1  LIG1        0.0000
      2 S2          1.0000    1.0000    1.0000 S.O2    1  LIG1        0.0000
      3 O3          1.8169    0.0210    0.3307 O.2     1  LIG1        0.0000
      4 O4          0.3307    1.8169    0.0210 O.2     1  LIG1        0.0000
      5 N5          1.9757    1.9757    1.9757 N.pl3   1  LIG1        0.0000
      6 C6          3.2855    1.7326    2.2594 C.2     1  LIG1        0.0000
      7 N7          3.6943    2.6998    3.0427 N.2     1  LIG1        0.0000
      8 C8          2.6768    3.5852    3.2818 C.3     1  LIG1        0.0000
      9 C9          2.6264    4.7553    4.0356 C.3     1  LIG1        0.0000
     10 C10         1.4488    5.4924    4.1332 C.3     1  LIG1        0.0000
     11 F11         1.3904    6.6134    4.8507 F       1  LIG1        0.0000
     12 C12         0.3121    5.0395    3.4651 C.3     1  LIG1        0.0000
     13 F13        -0.8261    5.7300    3.5610 F       1  LIG1        0.0000
     14 C14         0.4011    3.8679    2.7144 C.3     1  LIG1        0.0000
     15 C15         1.5726    3.1208    2.6004 C.3     1  LIG1        0.0000
     16 H          -0.7978    0.8386    2.4915 H       1  LIG1        0.0000
     17 H          -0.8079   -0.4186    1.4494 H       1  LIG1        0.0000
     18 H           0.2342   -0.4085    2.7066 H       1  LIG1        0.0000
     19 H           3.8318    0.9617    1.9317 H       1  LIG1        0.0000
     20 H           3.4466    5.0703    4.5131 H       1  LIG1        0.0000
     21 H          -0.4155    3.5478    2.2341 H       1  LIG1        0.0000
@<TRIPOS>BOND
     1     1     2    1
     2     2     3    2
     3     2     4    2
     4     2     5    1
     5     5     6    1
     6     6     7    2
     7     7     8    1
     8     8     9   ar
     9     9    10   ar
    10    10    11    1
    11    10    12   ar
    12    12    13    1
    13    12    14   ar
    14    14    15   ar
    15    15     8   ar
    16    15     5    1
    17     1    16    1
    18     1    17    1
    19     1    18    1
    20     6    19    1
    21     9    20    1
    22    14    21    1
