@<TRIPOS>MOLECULE
*****
 21 22 0 0 0
SMALL
USER_CHARGES

@<TRIPOS>ATOM
      1 C1         -0.2305    0.1588    2.0268 C.3     1  LIG1        0.0000
      2 S2          1.0000    1.0000    1.0000 S.O2    1  LIG1        0.0000
      3 O3          1.8169    0.0210    0.3307 O.2     1  LIG1        0.0000
      4 O4          0.3307    1.8169    0.0210 O.2     1  LIG1        0.0000
      5 N5          1.9757    1.9757    1.9757 N.pl3   1  LIG1        0.0000
      6 C6          1.5959    3.1681    2.5135 C.2     1  LIG1        0.0000
      7 N7          2.6163    3.6225    3.1980 N.2     1  LIG1        0.0000
      8 C8          3.6685    2.7484    3.1269 C.3     1  LIG1        0.0000
      9 C9          4.9444    2.7889    3.6839 C.3     1  LIG1        0.0000
     10 C10         5.8572    1.7623    3.4549 C.3     1  LIG1        0.0000
     11 F11         7.0796    1.7910    3.9840 F       1  LIG1        0.0000
     12 C12         5.4765    0.6876    2.6526 C.3     1  LIG1        0.0000
     13 F13         6.3463   -0.2964    2.4150 F       1  LIG1        0.0000
     14 C14         4.1891    0.6772    2.1171 C.3     1  LIG1        0.0000
     15 C15         3.2605    1.6927    2.3407 C.3     1  LIG1        0.0000
     16 H          -0.7978    0.8386    2.4915 H       1  LIG1        0.0000
     17 H          -0.8079   -0.4186    1.4494 H       1  LIG1        0.0000
     18 H           0.2342   -0.4085    2.7066 H       1  LIG1        0.0000
     19 H           0.7066    3.6125    2.4061 H       1  LIG1        0.0000
     20 H           5.2086    3.5655    4.2560 H       1  LIG1        0.0000
     21 H           3.9186   -0.0968    1.5446 H       1  LIG1        0.0000
@<TRIPOS>BOND
     1     1     2    1
     2     2     3    2
     3     2     4    2
     4     2     5    1
     5     5     6    1
     6     6     7    2
     7     7     8    1
     8     8     9   ar
     9     9    10   ar
    10    10    11    1
    11    10    12   ar
    12    12    13    1
    13    12    14   ar
    14    14    15   ar
    15    15     8   ar
    16    15     5    1
    17     1    16    1
    18     1    17    1
    19     1    18    1
    20     6    19    1
    21     9    20    1
    22    14    21    1
