@<TRIPOS>MOLECULE
*****
 21 22 0 0 0
SMALL
USER_CHARGES

@<TRIPOS>ATOM
      1 C1         -0.2305    0.1588    2.0268 C.3     1  LIG1        0.0000
      2 S2          1.0000    1.0000    1.0000 S.O2    1  LIG1        0.0000
      3 O3          1.8169    0.0210    0.3307 O.2     1  LIG1        0.0000
      4 O4          0.3307    1.8169    0.0210 O.2     1  LIG1        0.0000
      5 N5          1.9757    1.9757    1.9757 N.pl3   1  LIG1        0.0000
      6 C6          3.3045    2.1978    1.7752 C.2     1  LIG1        0.0000
      7 N7          3.7086    2.9962    2.7320 N.2     1  LIG1        0.0000
      8 C8          2.6676    3.3118    3.5644 C.3     1  LIG1        0.0000
      9 C9          2.6014    4.1169    4.6990 C.3     1  LIG1        0.0000
     10 C10         1.4043    4.2777    5.3923 C.3     1  LIG1        0.0000
     11 F11         1.3302    5.0464    6.4780 F       1  LIG1        0.0000
     12 C12         0.2658    3.6155    4.9354 C.3     1  LIG1        0.0000
     13 F13        -0.8847    3.7513    5.5983 F       1  LIG1        0.0000
     14 C14         0.3676    2.8233    3.7925 C.3     1  LIG1        0.0000
     15 C15         1.5556    2.6557    3.0825 C.3     1  LIG1        0.0000
     16 H          -0.7978    0.8386    2.4915 H       1  LIG1        0.0000
     17 H          -0.8079   -0.4186    1.4494 H       1  LIG1        0.0000
     18 H           0.2342   -0.4085    2.7066 H       1  LIG1        0.0000
     19 H           3.8655    1.8224    1.0374 H       1  LIG1        0.0000
     20 H           3.4243    4.5857    5.0201 H       1  LIG1        0.0000
     21 H          -0.4519    2.3522    3.4660 H       1  LIG1        0.0000
@<TRIPOS>BOND
     1     1     2    1
     2     2     3    2
     3     2     4    2
     4     2     5    1
     5     5     6    1
     6     6     7    2
     7     7     8    1
     8     8     9   ar
     9     9    10   ar
    10    10    11    1
    11    10    12   ar
    12    12    13    1
    13    12    14   ar
    14    14    15   ar
    15    15     8   ar
    16    15     5    1
    17     1    16    1
    18     1    17    1
    19     1    18    1
    20     6    19    1
    21     9    20    1
    22    14    21    1
