@<TRIPOS>MOLECULE
*****
 21 22 0 0 0
SMALL
USER_CHARGES

@<TRIPOS>ATOM
      1 C1         -0.2305    0.1588    2.0268 C.3     1  LIG1        0.0000
      2 S2          1.0000    1.0000    1.0000 S.O2    1  LIG1        0.0000
      3 O3          1.8169    0.0210    0.3307 O.2     1  LIG1        0.0000
      4 O4          0.3307    1.8169    0.0210 O.2     1  LIG1        0.0000
      5 N5          1.9757    1.9757    1.9757 N.pl3   1  LIG1        0.0000
      6 C6          3.3335    2.0479    1.8961 C.2     1  LIG1        0.0000
      7 N7          3.7266    2.9005    2.8097 N.2     1  LIG1        0.0000
      8 C8          2.6500    3.3998    3.4940 C.3     1  LIG1        0.0000
      9 C9          2.5613    4.3225    4.5335 C.3     1  LIG1        0.0000
     10 C10         1.3273    4.6686    5.0784 C.3     1  LIG1        0.0000
     11 F11         1.2315    5.5510    6.0721 F       1  LIG1        0.0000
     12 C12         0.1740    4.0734    4.5693 C.3     1  LIG1        0.0000
     13 F13        -1.0136    4.3871    5.0914 F       1  LIG1        0.0000
     14 C14         0.3002    3.1592    3.5241 C.3     1  LIG1        0.0000
     15 C15         1.5261    2.8054    2.9623 C.3     1  LIG1        0.0000
     16 H          -0.7978    0.8386    2.4915 H       1  LIG1        0.0000
     17 H          -0.8079   -0.4186    1.4494 H       1  LIG1        0.0000
     18 H           0.2342   -0.4085    2.7066 H       1  LIG1        0.0000
     19 H           3.9195    1.5452    1.2605 H       1  LIG1        0.0000
     20 H           3.3947    4.7420    4.8934 H       1  LIG1        0.0000
     21 H          -0.5295    2.7365    3.1594 H       1  LIG1        0.0000
@<TRIPOS>BOND
     1     1     2    1
     2     2     3    2
     3     2     4    2
     4     2     5    1
     5     5     6    1
     6     6     7    2
     7     7     8    1
     8     8     9   ar
     9     9    10   ar
    10    10    11    1
    11    10    12   ar
    12    12    13    1
    13    12    14   ar
    14    14    15   ar
    15    15     8   ar
    16    15     5    1
    17     1    16    1
    18     1    17    1
    19     1    18    1
    20     6    19    1
    21     9    20    1
    22    14    21    1
