@<TRIPOS>MOLECULE
*****
 21 22 0 0 0
SMALL
USER_CHARGES

@<TRIPOS>ATOM
      1 C1         -0.2305    0.1588    2.0268 C.3     1  LIG1        0.0000
      2 S2          1.0000    1.0000    1.0000 S.O2    1  LIG1        0.0000
      3 O3          1.8169    0.0210    0.3307 O.2     1  LIG1        0.0000
      4 O4          0.3307    1.8169    0.0210 O.2     1  LIG1        0.0000
      5 N5          1.9757    1.9757    1.9757 N.pl3   1  LIG1        0.0000
      6 C6          1.9628    3.3377    1.9770 C.2     1  LIG1        0.0000
      7 N7          2.8526    3.7289    2.8553 N.2     1  LIG1        0.0000
      8 C8          3.4551    2.6473    3.4414 C.3     1  LIG1        0.0000
      9 C9          4.4421    2.5554    4.4198 C.3     1  LIG1        0.0000
     10 C10         4.9050    1.3156    4.8537 C.3     1  LIG1        0.0000
     11 F11         5.8480    1.2169    5.7897 F       1  LIG1        0.0000
     12 C12         4.3668    0.1596    4.2902 C.3     1  LIG1        0.0000
     13 F13         4.8110   -1.0344    4.6883 F       1  LIG1        0.0000
     14 C14         3.3756    0.2895    3.3182 C.3     1  LIG1        0.0000
     15 C15         2.8959    1.5217    2.8762 C.3     1  LIG1        0.0000
     16 H          -0.7978    0.8386    2.4915 H       1  LIG1        0.0000
     17 H          -0.8079   -0.4186    1.4494 H       1  LIG1        0.0000
     18 H           0.2342   -0.4085    2.7066 H       1  LIG1        0.0000
     19 H           1.3837    3.9274    1.4141 H       1  LIG1        0.0000
     20 H           4.8235    3.3907    4.8159 H       1  LIG1        0.0000
     21 H           2.9899   -0.5420    2.9185 H       1  LIG1        0.0000
@<TRIPOS>BOND
     1     1     2    1
     2     2     3    2
     3     2     4    2
     4     2     5    1
     5     5     6    1
     6     6     7    2
     7     7     8    1
     8     8     9   ar
     9     9    10   ar
    10    10    11    1
    11    10    12   ar
    12    12    13    1
    13    12    14   ar
    14    14    15   ar
    15    15     8   ar
    16    15     5    1
    17     1    16    1
    18     1    17    1
    19     1    18    1
    20     6    19    1
    21     9    20    1
    22    14    21    1
