@<TRIPOS>MOLECULE
*****
 21 22 0 0 0
SMALL
USER_CHARGES

@<TRIPOS>ATOM
      1 C1         -0.2305    0.1588    2.0268 C.3     1  LIG1        0.0000
      2 S2          1.0000    1.0000    1.0000 S.O2    1  LIG1        0.0000
      3 O3          1.8169    0.0210    0.3307 O.2     1  LIG1        0.0000
      4 O4          0.3307    1.8169    0.0210 O.2     1  LIG1        0.0000
      5 N5          1.9757    1.9757    1.9757 N.pl3   1  LIG1        0.0000
      6 C6          2.4971    3.1775    1.6029 C.2     1  LIG1        0.0000
      7 N7          3.1949    3.6243    2.6176 N.2     1  LIG1        0.0000
      8 C8          3.1426    2.7394    3.6619 C.3     1  LIG1        0.0000
      9 C9          3.7096    2.7741    4.9335 C.3     1  LIG1        0.0000
     10 C10         3.5139    1.7283    5.8321 C.3     1  LIG1        0.0000
     11 F11         4.0510    1.7525    7.0512 F       1  LIG1        0.0000
     12 C12         2.7407    0.6369    5.4391 C.3     1  LIG1        0.0000
     13 F13         2.5561   -0.3777    6.2865 F       1  LIG1        0.0000
     14 C14         2.1832    0.6391    4.1611 C.3     1  LIG1        0.0000
     15 C15         2.3633    1.6797    3.2508 C.3     1  LIG1        0.0000
     16 H          -0.7978    0.8386    2.4915 H       1  LIG1        0.0000
     17 H          -0.8079   -0.4186    1.4494 H       1  LIG1        0.0000
     18 H           0.2342   -0.4085    2.7066 H       1  LIG1        0.0000
     19 H           2.3712    3.6327    0.7214 H       1  LIG1        0.0000
     20 H           4.2647    3.5604    5.2049 H       1  LIG1        0.0000
     21 H           1.6267   -0.1441    3.8838 H       1  LIG1        0.0000
@<TRIPOS>BOND
     1     1     2    1
     2     2     3    2
     3     2     4    2
     4     2     5    1
     5     5     6    1
     6     6     7    2
     7     7     8    1
     8     8     9   ar
     9     9    10   ar
    10    10    11    1
    11    10    12   ar
    12    12    13    1
    13    12    14   ar
    14    14    15   ar
    15    15     8   ar
    16    15     5    1
    17     1    16    1
    18     1    17    1
    19     1    18    1
    20     6    19    1
    21     9    20    1
    22    14    21    1
