@<TRIPOS>MOLECULE
*****
 21 22 0 0 0
SMALL
USER_CHARGES

@<TRIPOS>ATOM
      1 C1         -0.2305    0.1588    2.0268 C.3     1  LIG1        0.0000
      2 S2          1.0000    1.0000    1.0000 S.O2    1  LIG1        0.0000
      3 O3          1.8169    0.0210    0.3307 O.2     1  LIG1        0.0000
      4 O4          0.3307    1.8169    0.0210 O.2     1  LIG1        0.0000
      5 N5          1.9757    1.9757    1.9757 N.pl3   1  LIG1        0.0000
      6 C6          3.0765    1.5472    2.6539 C.2     1  LIG1        0.0000
      7 N7          3.5592    2.5826    3.2950 N.2     1  LIG1        0.0000
      8 C8          2.7981    3.6950    3.0507 C.3     1  LIG1        0.0000
      9 C9          2.9125    5.0102    3.4946 C.3     1  LIG1        0.0000
     10 C10         1.9905    5.9786    3.1051 C.3     1  LIG1        0.0000
     11 F11         2.0917    7.2396    3.5233 F       1  LIG1        0.0000
     12 C12         0.9424    5.6120    2.2623 C.3     1  LIG1        0.0000
     13 F13         0.0449    6.5279    1.8920 F       1  LIG1        0.0000
     14 C14         0.8631    4.2880    1.8323 C.3     1  LIG1        0.0000
     15 C15         1.7801    3.3069    2.2068 C.3     1  LIG1        0.0000
     16 H          -0.7978    0.8386    2.4915 H       1  LIG1        0.0000
     17 H          -0.8079   -0.4186    1.4494 H       1  LIG1        0.0000
     18 H           0.2342   -0.4085    2.7066 H       1  LIG1        0.0000
     19 H           3.4461    0.6180    2.6611 H       1  LIG1        0.0000
     20 H           3.6666    5.2624    4.1010 H       1  LIG1        0.0000
     21 H           0.1116    4.0295    1.2254 H       1  LIG1        0.0000
@<TRIPOS>BOND
     1     1     2    1
     2     2     3    2
     3     2     4    2
     4     2     5    1
     5     5     6    1
     6     6     7    2
     7     7     8    1
     8     8     9   ar
     9     9    10   ar
    10    10    11    1
    11    10    12   ar
    12    12    13    1
    13    12    14   ar
    14    14    15   ar
    15    15     8   ar
    16    15     5    1
    17     1    16    1
    18     1    17    1
    19     1    18    1
    20     6    19    1
    21     9    20    1
    22    14    21    1
