@<TRIPOS>MOLECULE
*****
 21 22 0 0 0
SMALL
USER_CHARGES

@<TRIPOS>ATOM
      1 C1         -0.2305    0.1588    2.0268 C.3     1  LIG1        0.0000
      2 S2          1.0000    1.0000    1.0000 S.O2    1  LIG1        0.0000
      3 O3          1.8169    0.0210    0.3307 O.2     1  LIG1        0.0000
      4 O4          0.3307    1.8169    0.0210 O.2     1  LIG1        0.0000
      5 N5          1.9757    1.9757    1.9757 N.pl3   1  LIG1        0.0000
      6 C6          2.3382    3.2558    1.6836 C.2     1  LIG1        0.0000
      7 N7          3.0932    3.6749    2.6687 N.2     1  LIG1        0.0000
      8 C8          3.2357    2.6940    3.6141 C.3     1  LIG1        0.0000
      9 C9          3.9276    2.6671    4.8226 C.3     1  LIG1        0.0000
     10 C10         3.9280    1.5257    5.6206 C.3     1  LIG1        0.0000
     11 F11         4.5858    1.4901    6.7787 F       1  LIG1        0.0000
     12 C12         3.2252    0.4013    5.1902 C.3     1  LIG1        0.0000
     13 F13         3.2282   -0.7030    5.9397 F       1  LIG1        0.0000
     14 C14         2.5385    0.4665    3.9784 C.3     1  LIG1        0.0000
     15 C15         2.5219    1.6021    3.1698 C.3     1  LIG1        0.0000
     16 H          -0.7978    0.8386    2.4915 H       1  LIG1        0.0000
     17 H          -0.8079   -0.4186    1.4494 H       1  LIG1        0.0000
     18 H           0.2342   -0.4085    2.7066 H       1  LIG1        0.0000
     19 H           2.0773    3.7769    0.8710 H       1  LIG1        0.0000
     20 H           4.4307    3.4781    5.1212 H       1  LIG1        0.0000
     21 H           2.0330   -0.3410    3.6744 H       1  LIG1        0.0000
@<TRIPOS>BOND
     1     1     2    1
     2     2     3    2
     3     2     4    2
     4     2     5    1
     5     5     6    1
     6     6     7    2
     7     7     8    1
     8     8     9   ar
     9     9    10   ar
    10    10    11    1
    11    10    12   ar
    12    12    13    1
    13    12    14   ar
    14    14    15   ar
    15    15     8   ar
    16    15     5    1
    17     1    16    1
    18     1    17    1
    19     1    18    1
    20     6    19    1
    21     9    20    1
    22    14    21    1
