@<TRIPOS>MOLECULE

  69   73
SMALL
USER_CHARGES
@<TRIPOS>ATOM
   1 C1           4.4027     4.8772    -1.4251 C.3          1    LIG   0.0000
   2 C2           3.4246     4.7562    -2.5827 C.ar         1    LIG   0.0000
   3 C3           3.5467     5.5932    -3.6868 C.ar         1    LIG   0.0000
   4 C4           2.6512     5.4827    -4.7460 C.ar         1    LIG   0.0000
   5 C5           1.6344     4.5346    -4.7011 C.ar         1    LIG   0.0000
   6 C6           1.5122     3.6975    -3.5967 C.ar         1    LIG   0.0000
   7 C7           2.4076     3.8077    -2.5378 C.ar         1    LIG   0.0000
   8 N8           2.2850     2.9645    -1.4264 N.am         1    LIG   0.0000
   9 C9           1.0525     2.4958    -1.0547 C.2          1    LIG   0.0000
  10 O10          0.0779     2.8079    -1.6815 O.2          1    LIG   0.0000
  11 C11          0.9195     1.5805     0.1517 C.3          1    LIG   0.0000
  12 C12          1.8121     0.3740    -0.1204 C.3          1    LIG   0.0000
  13 C13          1.2045    -0.9363     0.3618 C.3          1    LIG   0.0000
  14 C14         -0.1686    -1.0654    -0.2769 C.ar         1    LIG   0.0000
  15 C15         -0.6132    -2.2502    -0.8550 C.ar         1    LIG   0.0000
  16 C16         -1.8688    -2.3188    -1.4509 C.ar         1    LIG   0.0000
  17 C17         -2.6963    -1.2010    -1.4705 C.ar         1    LIG   0.0000
  18 C18         -2.2380    -0.0270    -0.8806 C.ar         1    LIG   0.0000
  19 C19         -0.9835     0.0593    -0.2789 C.ar         1    LIG   0.0000
  20 N20         -0.5005     1.2321     0.3217 N.am         1    LIG   0.0000
  21 C21         -1.3209     2.0830     1.0722 C.2          1    LIG   0.0000
  22 O22         -0.8626     3.0755     1.5671 O.2          1    LIG   0.0000
  23 C23         -2.7247     1.7648     1.2516 C.ar         1    LIG   0.0000
  24 C24         -3.0847     0.5725     1.8726 C.ar         1    LIG   0.0000
  25 C25         -4.4282     0.2587     2.0486 C.ar         1    LIG   0.0000
  26 C26         -5.3969     1.1483     1.5963 C.ar         1    LIG   0.0000
  27 N27         -6.7499     0.8382     1.7700 N.pl3        1    LIG   0.0000
  28 C28         -7.1001    -0.4283     2.4345 C.3          1    LIG   0.0000
  29 C29         -8.3829    -0.3161     3.2470 C.3          1    LIG   0.0000
  30 C30         -9.4940     0.3968     2.4876 C.3          1    LIG   0.0000
  31 C31         -9.0096     1.8013     2.1518 C.3          1    LIG   0.0000
  32 C32        -10.1044     2.5949     1.4574 C.2          1    LIG   0.0000
  33 N33        -11.3292     2.7394     2.0541 N.am         1    LIG   0.0000
  34 O34         -9.8959     3.0948     0.3866 O.2          1    LIG   0.0000
  35 C35         -7.7591     1.7938     1.2838 C.3          1    LIG   0.0000
  36 C36         -5.0469     2.3418     0.9741 C.ar         1    LIG   0.0000
  37 C37         -3.7007     2.6483     0.8033 C.ar         1    LIG   0.0000
  38 H            1.2448     2.0573     0.9683 H            1    LIG   0.0000
  39 H           -8.7880     2.2653     3.0095 H            1    LIG   0.0000
  40 H            5.0627     5.6025    -1.6208 H            1    LIG   0.0000
  41 H            3.9026     5.0986    -0.5879 H            1    LIG   0.0000
  42 H            4.8861     4.0100    -1.3052 H            1    LIG   0.0000
  43 H            4.2781     6.2744    -3.7194 H            1    LIG   0.0000
  44 H            2.7386     6.0849    -5.5396 H            1    LIG   0.0000
  45 H            0.9912     4.4547    -5.4626 H            1    LIG   0.0000
  46 H            0.7807     3.0165    -3.5641 H            1    LIG   0.0000
  47 H            3.0972     2.7044    -0.9041 H            1    LIG   0.0000
  48 H            2.6852     0.5116     0.3473 H            1    LIG   0.0000
  49 H            1.9685     0.3091    -1.1060 H            1    LIG   0.0000
  50 H            1.7833    -1.7033     0.0849 H            1    LIG   0.0000
  51 H            1.1181    -0.9264     1.3580 H            1    LIG   0.0000
  52 H           -0.0255    -3.0592    -0.8421 H            1    LIG   0.0000
  53 H           -2.1773    -3.1746    -1.8663 H            1    LIG   0.0000
  54 H           -3.5992    -1.2401    -1.8984 H            1    LIG   0.0000
  55 H           -2.8275     0.7807    -0.8886 H            1    LIG   0.0000
  56 H           -2.3777    -0.0583     2.1922 H            1    LIG   0.0000
  57 H           -4.6943    -0.5958     2.4947 H            1    LIG   0.0000
  58 H           -6.3530    -0.6882     3.0464 H            1    LIG   0.0000
  59 H           -7.2211    -1.1350     1.7374 H            1    LIG   0.0000
  60 H           -8.1883     0.1943     4.0846 H            1    LIG   0.0000
  61 H           -8.6949    -1.2366     3.4825 H            1    LIG   0.0000
  62 H           -9.7025    -0.1005     1.6455 H            1    LIG   0.0000
  63 H          -10.3149     0.4480     3.0564 H            1    LIG   0.0000
  64 H          -11.5029     2.3228     2.9464 H            1    LIG   0.0000
  65 H          -12.0494     3.2614     1.5973 H            1    LIG   0.0000
  66 H           -8.0164     1.5433     0.3506 H            1    LIG   0.0000
  67 H           -7.3608     2.7111     1.2850 H            1    LIG   0.0000
  68 H           -5.7542     2.9718     0.6534 H            1    LIG   0.0000
  69 H           -3.4349     3.5036     0.3584 H            1    LIG   0.0000
@<TRIPOS>BOND
   1        1        2 1
   2        2        3 ar
   3        3        4 ar
   4        4        5 ar
   5        5        6 ar
   6        6        7 ar
   7        7        2 ar
   8        7        8 1
   9        8        9 am
  10        9       10 2
  11        9       11 1
  12       11       12 1
  13       12       13 1
  14       13       14 1
  15       14       15 ar
  16       15       16 ar
  17       16       17 ar
  18       17       18 ar
  19       18       19 ar
  20       19       14 ar
  21       19       20 1
  22       20       11 1
  23       20       21 am
  24       21       22 2
  25       21       23 1
  26       23       24 ar
  27       24       25 ar
  28       25       26 ar
  29       26       27 1
  30       27       28 1
  31       28       29 1
  32       29       30 1
  33       30       31 1
  34       31       32 1
  35       32       33 am
  36       32       34 2
  37       31       35 1
  38       35       27 1
  39       26       36 ar
  40       36       37 ar
  41       37       23 ar
  42       11       38 1
  43       31       39 1
  44        1       40 1
  45        1       41 1
  46        1       42 1
  47        3       43 1
  48        4       44 1
  49        5       45 1
  50        6       46 1
  51        8       47 1
  52       12       48 1
  53       12       49 1
  54       13       50 1
  55       13       51 1
  56       15       52 1
  57       16       53 1
  58       17       54 1
  59       18       55 1
  60       24       56 1
  61       25       57 1
  62       28       58 1
  63       28       59 1
  64       29       60 1
  65       29       61 1
  66       30       62 1
  67       30       63 1
  68       33       64 1
  69       33       65 1
  70       35       66 1
  71       35       67 1
  72       36       68 1
  73       37       69 1

@<TRIPOS>MOLECULE

  69   73
SMALL
USER_CHARGES
@<TRIPOS>ATOM
   1 C1           4.4027     4.8772    -1.4251 C.3          1    LIG   0.0000
   2 C2           3.4246     4.7562    -2.5827 C.ar         1    LIG   0.0000
   3 C3           3.5467     5.5932    -3.6868 C.ar         1    LIG   0.0000
   4 C4           2.6512     5.4827    -4.7460 C.ar         1    LIG   0.0000
   5 C5           1.6344     4.5346    -4.7011 C.ar         1    LIG   0.0000
   6 C6           1.5122     3.6975    -3.5967 C.ar         1    LIG   0.0000
   7 C7           2.4076     3.8077    -2.5378 C.ar         1    LIG   0.0000
   8 N8           2.2850     2.9645    -1.4264 N.am         1    LIG   0.0000
   9 C9           1.0525     2.4958    -1.0547 C.2          1    LIG   0.0000
  10 O10          0.0779     2.8079    -1.6815 O.2          1    LIG   0.0000
  11 C11          0.9195     1.5805     0.1517 C.3          1    LIG   0.0000
  12 C12          1.8121     0.3740    -0.1204 C.3          1    LIG   0.0000
  13 C13          1.2045    -0.9363     0.3618 C.3          1    LIG   0.0000
  14 C14         -0.1686    -1.0654    -0.2769 C.ar         1    LIG   0.0000
  15 C15         -0.6132    -2.2502    -0.8550 C.ar         1    LIG   0.0000
  16 C16         -1.8688    -2.3188    -1.4509 C.ar         1    LIG   0.0000
  17 C17         -2.6963    -1.2010    -1.4705 C.ar         1    LIG   0.0000
  18 C18         -2.2380    -0.0270    -0.8806 C.ar         1    LIG   0.0000
  19 C19         -0.9835     0.0593    -0.2789 C.ar         1    LIG   0.0000
  20 N20         -0.5005     1.2321     0.3217 N.am         1    LIG   0.0000
  21 C21         -1.3209     2.0830     1.0722 C.2          1    LIG   0.0000
  22 O22         -0.8626     3.0755     1.5671 O.2          1    LIG   0.0000
  23 C23         -2.7247     1.7648     1.2516 C.ar         1    LIG   0.0000
  24 C24         -3.0847     0.5725     1.8726 C.ar         1    LIG   0.0000
  25 C25         -4.4282     0.2587     2.0486 C.ar         1    LIG   0.0000
  26 C26         -5.3969     1.1483     1.5963 C.ar         1    LIG   0.0000
  27 N27         -6.7499     0.8382     1.7700 N.pl3        1    LIG   0.0000
  28 C28         -7.7576     1.7934     1.2798 C.3          1    LIG   0.0000
  29 C29         -9.0218     1.0974     0.7943 C.3          1    LIG   0.0000
  30 C30         -9.5013     0.0198     1.7579 C.3          1    LIG   0.0000
  31 C31         -8.3965    -1.0205     1.8897 C.3          1    LIG   0.0000
  32 C32         -8.8428    -2.1672     2.7819 C.2          1    LIG   0.0000
  33 N33         -9.9907    -2.8556     2.4898 N.am         1    LIG   0.0000
  34 O34         -8.1897    -2.4696     3.7421 O.2          1    LIG   0.0000
  35 C35         -7.1022    -0.4296     2.4309 C.3          1    LIG   0.0000
  36 C36         -5.0469     2.3418     0.9741 C.ar         1    LIG   0.0000
  37 C37         -3.7007     2.6483     0.8033 C.ar         1    LIG   0.0000
  38 H            1.2448     2.0573     0.9683 H            1    LIG   0.0000
  39 H           -8.2105    -1.3910     0.9797 H            1    LIG   0.0000
  40 H            5.0627     5.6025    -1.6208 H            1    LIG   0.0000
  41 H            3.9026     5.0986    -0.5879 H            1    LIG   0.0000
  42 H            4.8861     4.0100    -1.3052 H            1    LIG   0.0000
  43 H            4.2781     6.2744    -3.7194 H            1    LIG   0.0000
  44 H            2.7386     6.0849    -5.5396 H            1    LIG   0.0000
  45 H            0.9912     4.4547    -5.4626 H            1    LIG   0.0000
  46 H            0.7807     3.0165    -3.5641 H            1    LIG   0.0000
  47 H            3.0972     2.7044    -0.9041 H            1    LIG   0.0000
  48 H            2.6852     0.5116     0.3473 H            1    LIG   0.0000
  49 H            1.9685     0.3091    -1.1060 H            1    LIG   0.0000
  50 H            1.7833    -1.7033     0.0849 H            1    LIG   0.0000
  51 H            1.1181    -0.9264     1.3580 H            1    LIG   0.0000
  52 H           -0.0255    -3.0592    -0.8421 H            1    LIG   0.0000
  53 H           -2.1773    -3.1746    -1.8663 H            1    LIG   0.0000
  54 H           -3.5992    -1.2401    -1.8984 H            1    LIG   0.0000
  55 H           -2.8275     0.7807    -0.8886 H            1    LIG   0.0000
  56 H           -2.3777    -0.0583     2.1922 H            1    LIG   0.0000
  57 H           -4.6943    -0.5958     2.4947 H            1    LIG   0.0000
  58 H           -7.3654     2.3144     0.5217 H            1    LIG   0.0000
  59 H           -7.9987     2.4171     2.0234 H            1    LIG   0.0000
  60 H           -8.8346     0.6744    -0.0924 H            1    LIG   0.0000
  61 H           -9.7447     1.7806     0.6917 H            1    LIG   0.0000
  62 H           -9.6939     0.4252     2.6515 H            1    LIG   0.0000
  63 H          -10.3308    -0.4097     1.4009 H            1    LIG   0.0000
  64 H          -10.5350    -2.6036     1.6896 H            1    LIG   0.0000
  65 H          -10.2844    -3.6101     3.0768 H            1    LIG   0.0000
  66 H           -7.2096    -0.2627     3.4111 H            1    LIG   0.0000
  67 H           -6.3623    -1.0860     2.2837 H            1    LIG   0.0000
  68 H           -5.7542     2.9718     0.6534 H            1    LIG   0.0000
  69 H           -3.4349     3.5036     0.3584 H            1    LIG   0.0000
@<TRIPOS>BOND
   1        1        2 1
   2        2        3 ar
   3        3        4 ar
   4        4        5 ar
   5        5        6 ar
   6        6        7 ar
   7        7        2 ar
   8        7        8 1
   9        8        9 am
  10        9       10 2
  11        9       11 1
  12       11       12 1
  13       12       13 1
  14       13       14 1
  15       14       15 ar
  16       15       16 ar
  17       16       17 ar
  18       17       18 ar
  19       18       19 ar
  20       19       14 ar
  21       19       20 1
  22       20       11 1
  23       20       21 am
  24       21       22 2
  25       21       23 1
  26       23       24 ar
  27       24       25 ar
  28       25       26 ar
  29       26       27 1
  30       27       28 1
  31       28       29 1
  32       29       30 1
  33       30       31 1
  34       31       32 1
  35       32       33 am
  36       32       34 2
  37       31       35 1
  38       35       27 1
  39       26       36 ar
  40       36       37 ar
  41       37       23 ar
  42       11       38 1
  43       31       39 1
  44        1       40 1
  45        1       41 1
  46        1       42 1
  47        3       43 1
  48        4       44 1
  49        5       45 1
  50        6       46 1
  51        8       47 1
  52       12       48 1
  53       12       49 1
  54       13       50 1
  55       13       51 1
  56       15       52 1
  57       16       53 1
  58       17       54 1
  59       18       55 1
  60       24       56 1
  61       25       57 1
  62       28       58 1
  63       28       59 1
  64       29       60 1
  65       29       61 1
  66       30       62 1
  67       30       63 1
  68       33       64 1
  69       33       65 1
  70       35       66 1
  71       35       67 1
  72       36       68 1
  73       37       69 1

@<TRIPOS>MOLECULE

  69   73
SMALL
USER_CHARGES
@<TRIPOS>ATOM
   1 C1          -2.2588     4.5579    -2.4019 C.3          1    LIG   0.0000
   2 C2          -0.9832     4.5451    -3.2289 C.ar         1    LIG   0.0000
   3 C3          -0.8612     5.3831    -4.3323 C.ar         1    LIG   0.0000
   4 C4           0.3062     5.3709    -5.0894 C.ar         1    LIG   0.0000
   5 C5           1.3515     4.5213    -4.7423 C.ar         1    LIG   0.0000
   6 C6           1.2293     3.6832    -3.6388 C.ar         1    LIG   0.0000
   7 C7           0.0624     3.6954    -2.8816 C.ar         1    LIG   0.0000
   8 N8          -0.0601     2.8521    -1.7702 N.am         1    LIG   0.0000
   9 C9           1.0525     2.4958    -1.0547 C.2          1    LIG   0.0000
  10 O10          2.1321     2.9063    -1.3803 O.2          1    LIG   0.0000
  11 C11          0.9195     1.5805     0.1517 C.3          1    LIG   0.0000
  12 C12          1.8121     0.3740    -0.1204 C.3          1    LIG   0.0000
  13 C13          1.2045    -0.9363     0.3618 C.3          1    LIG   0.0000
  14 C14         -0.1686    -1.0654    -0.2769 C.ar         1    LIG   0.0000
  15 C15         -0.6132    -2.2502    -0.8550 C.ar         1    LIG   0.0000
  16 C16         -1.8688    -2.3188    -1.4509 C.ar         1    LIG   0.0000
  17 C17         -2.6963    -1.2010    -1.4705 C.ar         1    LIG   0.0000
  18 C18         -2.2380    -0.0270    -0.8806 C.ar         1    LIG   0.0000
  19 C19         -0.9835     0.0593    -0.2789 C.ar         1    LIG   0.0000
  20 N20         -0.5005     1.2321     0.3217 N.am         1    LIG   0.0000
  21 C21         -1.3209     2.0830     1.0722 C.2          1    LIG   0.0000
  22 O22         -0.8626     3.0755     1.5671 O.2          1    LIG   0.0000
  23 C23         -2.7247     1.7648     1.2516 C.ar         1    LIG   0.0000
  24 C24         -3.0847     0.5725     1.8726 C.ar         1    LIG   0.0000
  25 C25         -4.4282     0.2587     2.0486 C.ar         1    LIG   0.0000
  26 C26         -5.3969     1.1483     1.5963 C.ar         1    LIG   0.0000
  27 N27         -6.7492     0.8383     1.7699 N.pl3        1    LIG   0.0000
  28 C28         -7.7597     1.7975     1.2885 C.3          1    LIG   0.0000
  29 C29         -9.0185     1.8071     2.1446 C.3          1    LIG   0.0000
  30 C30         -9.4495     0.4089     2.5698 C.3          1    LIG   0.0000
  31 C31         -8.3333    -0.3357     3.2906 C.3          1    LIG   0.0000
  32 C32         -8.0232     0.3014     4.6366 C.2          1    LIG   0.0000
  33 N33         -9.0226     0.4802     5.5564 N.am         1    LIG   0.0000
  34 O34         -6.9031     0.6475     4.8928 O.2          1    LIG   0.0000
  35 C35         -7.0796    -0.4342     2.4331 C.3          1    LIG   0.0000
  36 C36         -5.0469     2.3418     0.9741 C.ar         1    LIG   0.0000
  37 C37         -3.7007     2.6483     0.8033 C.ar         1    LIG   0.0000
  38 H            1.2448     2.0573     0.9683 H            1    LIG   0.0000
  39 H           -8.6543    -1.2668     3.4641 H            1    LIG   0.0000
  40 H           -2.8999     5.2210    -2.7884 H            1    LIG   0.0000
  41 H           -2.6730     3.6478    -2.4138 H            1    LIG   0.0000
  42 H           -2.0426     4.8135    -1.4596 H            1    LIG   0.0000
  43 H           -1.6124     5.9943    -4.5815 H            1    LIG   0.0000
  44 H            0.3937     5.9729    -5.8831 H            1    LIG   0.0000
  45 H            2.1907     4.5130    -5.2861 H            1    LIG   0.0000
  46 H            1.9805     3.0718    -3.3898 H            1    LIG   0.0000
  47 H           -0.9598     2.5101    -1.4989 H            1    LIG   0.0000
  48 H            2.6852     0.5116     0.3473 H            1    LIG   0.0000
  49 H            1.9685     0.3091    -1.1060 H            1    LIG   0.0000
  50 H            1.7833    -1.7033     0.0849 H            1    LIG   0.0000
  51 H            1.1181    -0.9264     1.3580 H            1    LIG   0.0000
  52 H           -0.0255    -3.0592    -0.8421 H            1    LIG   0.0000
  53 H           -2.1773    -3.1746    -1.8663 H            1    LIG   0.0000
  54 H           -3.5992    -1.2401    -1.8984 H            1    LIG   0.0000
  55 H           -2.8275     0.7807    -0.8886 H            1    LIG   0.0000
  56 H           -2.3777    -0.0583     2.1922 H            1    LIG   0.0000
  57 H           -4.6943    -0.5958     2.4947 H            1    LIG   0.0000
  58 H           -8.0118     1.5530     0.3522 H            1    LIG   0.0000
  59 H           -7.3601     2.7141     1.2975 H            1    LIG   0.0000
  60 H           -9.7599     2.2247     1.6193 H            1    LIG   0.0000
  61 H           -8.8436     2.3515     2.9650 H            1    LIG   0.0000
  62 H          -10.2355     0.4856     3.1832 H            1    LIG   0.0000
  63 H           -9.7112    -0.1100     1.7560 H            1    LIG   0.0000
  64 H           -9.9561     0.1918     5.3429 H            1    LIG   0.0000
  65 H           -8.8188     0.8990     6.4413 H            1    LIG   0.0000
  66 H           -6.3122    -0.7007     3.0163 H            1    LIG   0.0000
  67 H           -7.2242    -1.1329     1.7325 H            1    LIG   0.0000
  68 H           -5.7542     2.9718     0.6534 H            1    LIG   0.0000
  69 H           -3.4349     3.5036     0.3584 H            1    LIG   0.0000
@<TRIPOS>BOND
   1        1        2 1
   2        2        3 ar
   3        3        4 ar
   4        4        5 ar
   5        5        6 ar
   6        6        7 ar
   7        7        2 ar
   8        7        8 1
   9        8        9 am
  10        9       10 2
  11        9       11 1
  12       11       12 1
  13       12       13 1
  14       13       14 1
  15       14       15 ar
  16       15       16 ar
  17       16       17 ar
  18       17       18 ar
  19       18       19 ar
  20       19       14 ar
  21       19       20 1
  22       20       11 1
  23       20       21 am
  24       21       22 2
  25       21       23 1
  26       23       24 ar
  27       24       25 ar
  28       25       26 ar
  29       26       27 1
  30       27       28 1
  31       28       29 1
  32       29       30 1
  33       30       31 1
  34       31       32 1
  35       32       33 am
  36       32       34 2
  37       31       35 1
  38       35       27 1
  39       26       36 ar
  40       36       37 ar
  41       37       23 ar
  42       11       38 1
  43       31       39 1
  44        1       40 1
  45        1       41 1
  46        1       42 1
  47        3       43 1
  48        4       44 1
  49        5       45 1
  50        6       46 1
  51        8       47 1
  52       12       48 1
  53       12       49 1
  54       13       50 1
  55       13       51 1
  56       15       52 1
  57       16       53 1
  58       17       54 1
  59       18       55 1
  60       24       56 1
  61       25       57 1
  62       28       58 1
  63       28       59 1
  64       29       60 1
  65       29       61 1
  66       30       62 1
  67       30       63 1
  68       33       64 1
  69       33       65 1
  70       35       66 1
  71       35       67 1
  72       36       68 1
  73       37       69 1

@<TRIPOS>MOLECULE

  69   73
SMALL
USER_CHARGES
@<TRIPOS>ATOM
   1 C1           4.4027     4.8772    -1.4251 C.3          1    LIG   0.0000
   2 C2           3.4246     4.7562    -2.5827 C.ar         1    LIG   0.0000
   3 C3           3.5467     5.5932    -3.6868 C.ar         1    LIG   0.0000
   4 C4           2.6512     5.4827    -4.7460 C.ar         1    LIG   0.0000
   5 C5           1.6344     4.5346    -4.7011 C.ar         1    LIG   0.0000
   6 C6           1.5122     3.6975    -3.5967 C.ar         1    LIG   0.0000
   7 C7           2.4076     3.8077    -2.5378 C.ar         1    LIG   0.0000
   8 N8           2.2850     2.9645    -1.4264 N.am         1    LIG   0.0000
   9 C9           1.0525     2.4958    -1.0547 C.2          1    LIG   0.0000
  10 O10          0.0779     2.8079    -1.6815 O.2          1    LIG   0.0000
  11 C11          0.9195     1.5805     0.1517 C.3          1    LIG   0.0000
  12 C12          1.8121     0.3740    -0.1204 C.3          1    LIG   0.0000
  13 C13          1.2045    -0.9363     0.3618 C.3          1    LIG   0.0000
  14 C14         -0.1686    -1.0654    -0.2769 C.ar         1    LIG   0.0000
  15 C15         -0.6132    -2.2502    -0.8550 C.ar         1    LIG   0.0000
  16 C16         -1.8688    -2.3188    -1.4509 C.ar         1    LIG   0.0000
  17 C17         -2.6963    -1.2010    -1.4705 C.ar         1    LIG   0.0000
  18 C18         -2.2380    -0.0270    -0.8806 C.ar         1    LIG   0.0000
  19 C19         -0.9835     0.0593    -0.2789 C.ar         1    LIG   0.0000
  20 N20         -0.5005     1.2321     0.3217 N.am         1    LIG   0.0000
  21 C21         -1.3209     2.0830     1.0722 C.2          1    LIG   0.0000
  22 O22         -2.4822     1.8198     1.2206 O.2          1    LIG   0.0000
  23 C23         -0.7670     3.2828     1.6705 C.ar         1    LIG   0.0000
  24 C24          0.2715     3.1748     2.5907 C.ar         1    LIG   0.0000
  25 C25          0.8086     4.3196     3.1698 C.ar         1    LIG   0.0000
  26 C26          0.2940     5.5627     2.8176 C.ar         1    LIG   0.0000
  27 N27          0.8297     6.7178     3.3969 N.pl3        1    LIG   0.0000
  28 C28          1.9308     6.5724     4.3637 C.3          1    LIG   0.0000
  29 C29          2.9023     7.7435     4.3096 C.3          1    LIG   0.0000
  30 C30          2.1914     9.0898     4.2683 C.3          1    LIG   0.0000
  31 C31          1.3209     9.1253     3.0189 C.3          1    LIG   0.0000
  32 C32          0.6401    10.4769     2.8773 C.2          1    LIG   0.0000
  33 N33          1.3901    11.6232     2.8599 N.am         1    LIG   0.0000
  34 O34         -0.5544    10.5399     2.7807 O.2          1    LIG   0.0000
  35 C35          0.2703     8.0237     3.0100 C.3          1    LIG   0.0000
  36 C36         -0.7440     5.6806     1.8995 C.ar         1    LIG   0.0000
  37 C37         -1.2745     4.5304     1.3241 C.ar         1    LIG   0.0000
  38 H            1.2448     2.0573     0.9683 H            1    LIG   0.0000
  39 H            1.9141     8.9932     2.2248 H            1    LIG   0.0000
  40 H            5.0627     5.6025    -1.6208 H            1    LIG   0.0000
  41 H            3.9026     5.0986    -0.5879 H            1    LIG   0.0000
  42 H            4.8861     4.0100    -1.3052 H            1    LIG   0.0000
  43 H            4.2781     6.2744    -3.7194 H            1    LIG   0.0000
  44 H            2.7386     6.0849    -5.5396 H            1    LIG   0.0000
  45 H            0.9912     4.4547    -5.4626 H            1    LIG   0.0000
  46 H            0.7807     3.0165    -3.5641 H            1    LIG   0.0000
  47 H            3.0972     2.7044    -0.9041 H            1    LIG   0.0000
  48 H            2.6852     0.5116     0.3473 H            1    LIG   0.0000
  49 H            1.9685     0.3091    -1.1060 H            1    LIG   0.0000
  50 H            1.7833    -1.7033     0.0849 H            1    LIG   0.0000
  51 H            1.1181    -0.9264     1.3580 H            1    LIG   0.0000
  52 H           -0.0255    -3.0592    -0.8421 H            1    LIG   0.0000
  53 H           -2.1773    -3.1746    -1.8663 H            1    LIG   0.0000
  54 H           -3.5992    -1.2401    -1.8984 H            1    LIG   0.0000
  55 H           -2.8275     0.7807    -0.8886 H            1    LIG   0.0000
  56 H            0.6313     2.2745     2.8354 H            1    LIG   0.0000
  57 H            1.5555     4.2497     3.8311 H            1    LIG   0.0000
  58 H            2.4299     5.7303     4.1591 H            1    LIG   0.0000
  59 H            1.5453     6.5160     5.2847 H            1    LIG   0.0000
  60 H            3.4672     7.6539     3.4893 H            1    LIG   0.0000
  61 H            3.4859     7.7138     5.1211 H            1    LIG   0.0000
  62 H            1.6208     9.1973     5.0825 H            1    LIG   0.0000
  63 H            2.8649     9.8282     4.2335 H            1    LIG   0.0000
  64 H            2.3855    11.5707     2.9404 H            1    LIG   0.0000
  65 H            0.9423    12.5124     2.7668 H            1    LIG   0.0000
  66 H           -0.4559     8.2662     3.6534 H            1    LIG   0.0000
  67 H           -0.1115     7.9503     2.0887 H            1    LIG   0.0000
  68 H           -1.1045     6.5810     1.6560 H            1    LIG   0.0000
  69 H           -2.0204     4.6007     0.6618 H            1    LIG   0.0000
@<TRIPOS>BOND
   1        1        2 1
   2        2        3 ar
   3        3        4 ar
   4        4        5 ar
   5        5        6 ar
   6        6        7 ar
   7        7        2 ar
   8        7        8 1
   9        8        9 am
  10        9       10 2
  11        9       11 1
  12       11       12 1
  13       12       13 1
  14       13       14 1
  15       14       15 ar
  16       15       16 ar
  17       16       17 ar
  18       17       18 ar
  19       18       19 ar
  20       19       14 ar
  21       19       20 1
  22       20       11 1
  23       20       21 am
  24       21       22 2
  25       21       23 1
  26       23       24 ar
  27       24       25 ar
  28       25       26 ar
  29       26       27 1
  30       27       28 1
  31       28       29 1
  32       29       30 1
  33       30       31 1
  34       31       32 1
  35       32       33 am
  36       32       34 2
  37       31       35 1
  38       35       27 1
  39       26       36 ar
  40       36       37 ar
  41       37       23 ar
  42       11       38 1
  43       31       39 1
  44        1       40 1
  45        1       41 1
  46        1       42 1
  47        3       43 1
  48        4       44 1
  49        5       45 1
  50        6       46 1
  51        8       47 1
  52       12       48 1
  53       12       49 1
  54       13       50 1
  55       13       51 1
  56       15       52 1
  57       16       53 1
  58       17       54 1
  59       18       55 1
  60       24       56 1
  61       25       57 1
  62       28       58 1
  63       28       59 1
  64       29       60 1
  65       29       61 1
  66       30       62 1
  67       30       63 1
  68       33       64 1
  69       33       65 1
  70       35       66 1
  71       35       67 1
  72       36       68 1
  73       37       69 1

@<TRIPOS>MOLECULE

  69   73
SMALL
USER_CHARGES
@<TRIPOS>ATOM
   1 C1           4.4027     4.8772    -1.4251 C.3          1    LIG   0.0000
   2 C2           3.4246     4.7562    -2.5827 C.ar         1    LIG   0.0000
   3 C3           3.5467     5.5932    -3.6868 C.ar         1    LIG   0.0000
   4 C4           2.6512     5.4827    -4.7460 C.ar         1    LIG   0.0000
   5 C5           1.6344     4.5346    -4.7011 C.ar         1    LIG   0.0000
   6 C6           1.5122     3.6975    -3.5967 C.ar         1    LIG   0.0000
   7 C7           2.4076     3.8077    -2.5378 C.ar         1    LIG   0.0000
   8 N8           2.2850     2.9645    -1.4264 N.am         1    LIG   0.0000
   9 C9           1.0525     2.4958    -1.0547 C.2          1    LIG   0.0000
  10 O10          0.0779     2.8079    -1.6815 O.2          1    LIG   0.0000
  11 C11          0.9195     1.5805     0.1517 C.3          1    LIG   0.0000
  12 C12          1.8121     0.3740    -0.1204 C.3          1    LIG   0.0000
  13 C13          1.2045    -0.9363     0.3618 C.3          1    LIG   0.0000
  14 C14         -0.1686    -1.0654    -0.2769 C.ar         1    LIG   0.0000
  15 C15         -0.6132    -2.2502    -0.8550 C.ar         1    LIG   0.0000
  16 C16         -1.8688    -2.3188    -1.4509 C.ar         1    LIG   0.0000
  17 C17         -2.6963    -1.2010    -1.4705 C.ar         1    LIG   0.0000
  18 C18         -2.2380    -0.0270    -0.8806 C.ar         1    LIG   0.0000
  19 C19         -0.9835     0.0593    -0.2789 C.ar         1    LIG   0.0000
  20 N20         -0.5005     1.2321     0.3217 N.am         1    LIG   0.0000
  21 C21         -1.3209     2.0830     1.0722 C.2          1    LIG   0.0000
  22 O22         -2.4822     1.8198     1.2206 O.2          1    LIG   0.0000
  23 C23         -0.7670     3.2828     1.6705 C.ar         1    LIG   0.0000
  24 C24          0.2715     3.1748     2.5907 C.ar         1    LIG   0.0000
  25 C25          0.8086     4.3196     3.1698 C.ar         1    LIG   0.0000
  26 C26          0.2940     5.5627     2.8176 C.ar         1    LIG   0.0000
  27 N27          0.8297     6.7178     3.3969 N.pl3        1    LIG   0.0000
  28 C28          0.2663     8.0225     3.0115 C.3          1    LIG   0.0000
  29 C29          0.3034     9.0259     4.1562 C.3          1    LIG   0.0000
  30 C30          1.6441     9.0376     4.8786 C.3          1    LIG   0.0000
  31 C31          1.8854     7.6454     5.4475 C.3          1    LIG   0.0000
  32 C32          3.1764     7.6095     6.2490 C.2          1    LIG   0.0000
  33 N33          3.3659     8.4889     7.2823 N.am         1    LIG   0.0000
  34 O34          4.0297     6.8109     5.9767 O.2          1    LIG   0.0000
  35 C35          1.9283     6.5743     4.3667 C.3          1    LIG   0.0000
  36 C36         -0.7440     5.6806     1.8995 C.ar         1    LIG   0.0000
  37 C37         -1.2745     4.5304     1.3241 C.ar         1    LIG   0.0000
  38 H            1.2448     2.0573     0.9683 H            1    LIG   0.0000
  39 H            1.1307     7.4295     6.0671 H            1    LIG   0.0000
  40 H            5.0627     5.6025    -1.6208 H            1    LIG   0.0000
  41 H            3.9026     5.0986    -0.5879 H            1    LIG   0.0000
  42 H            4.8861     4.0100    -1.3052 H            1    LIG   0.0000
  43 H            4.2781     6.2744    -3.7194 H            1    LIG   0.0000
  44 H            2.7386     6.0849    -5.5396 H            1    LIG   0.0000
  45 H            0.9912     4.4547    -5.4626 H            1    LIG   0.0000
  46 H            0.7807     3.0165    -3.5641 H            1    LIG   0.0000
  47 H            3.0972     2.7044    -0.9041 H            1    LIG   0.0000
  48 H            2.6852     0.5116     0.3473 H            1    LIG   0.0000
  49 H            1.9685     0.3091    -1.1060 H            1    LIG   0.0000
  50 H            1.7833    -1.7033     0.0849 H            1    LIG   0.0000
  51 H            1.1181    -0.9264     1.3580 H            1    LIG   0.0000
  52 H           -0.0255    -3.0592    -0.8421 H            1    LIG   0.0000
  53 H           -2.1773    -3.1746    -1.8663 H            1    LIG   0.0000
  54 H           -3.5992    -1.2401    -1.8984 H            1    LIG   0.0000
  55 H           -2.8275     0.7807    -0.8886 H            1    LIG   0.0000
  56 H            0.6313     2.2745     2.8354 H            1    LIG   0.0000
  57 H            1.5555     4.2497     3.8311 H            1    LIG   0.0000
  58 H           -0.6838     7.8920     2.7283 H            1    LIG   0.0000
  59 H            0.7952     8.3881     2.2456 H            1    LIG   0.0000
  60 H           -0.4127     8.7896     4.8130 H            1    LIG   0.0000
  61 H            0.1296     9.9392     3.7878 H            1    LIG   0.0000
  62 H            2.3736     9.2726     4.2362 H            1    LIG   0.0000
  63 H            1.6241     9.7083     5.6200 H            1    LIG   0.0000
  64 H            2.6548     9.1544     7.5093 H            1    LIG   0.0000
  65 H            4.2152     8.4653     7.8096 H            1    LIG   0.0000
  66 H            2.7989     6.6432     3.8796 H            1    LIG   0.0000
  67 H            1.8594     5.6760     4.8007 H            1    LIG   0.0000
  68 H           -1.1045     6.5810     1.6560 H            1    LIG   0.0000
  69 H           -2.0204     4.6007     0.6618 H            1    LIG   0.0000
@<TRIPOS>BOND
   1        1        2 1
   2        2        3 ar
   3        3        4 ar
   4        4        5 ar
   5        5        6 ar
   6        6        7 ar
   7        7        2 ar
   8        7        8 1
   9        8        9 am
  10        9       10 2
  11        9       11 1
  12       11       12 1
  13       12       13 1
  14       13       14 1
  15       14       15 ar
  16       15       16 ar
  17       16       17 ar
  18       17       18 ar
  19       18       19 ar
  20       19       14 ar
  21       19       20 1
  22       20       11 1
  23       20       21 am
  24       21       22 2
  25       21       23 1
  26       23       24 ar
  27       24       25 ar
  28       25       26 ar
  29       26       27 1
  30       27       28 1
  31       28       29 1
  32       29       30 1
  33       30       31 1
  34       31       32 1
  35       32       33 am
  36       32       34 2
  37       31       35 1
  38       35       27 1
  39       26       36 ar
  40       36       37 ar
  41       37       23 ar
  42       11       38 1
  43       31       39 1
  44        1       40 1
  45        1       41 1
  46        1       42 1
  47        3       43 1
  48        4       44 1
  49        5       45 1
  50        6       46 1
  51        8       47 1
  52       12       48 1
  53       12       49 1
  54       13       50 1
  55       13       51 1
  56       15       52 1
  57       16       53 1
  58       17       54 1
  59       18       55 1
  60       24       56 1
  61       25       57 1
  62       28       58 1
  63       28       59 1
  64       29       60 1
  65       29       61 1
  66       30       62 1
  67       30       63 1
  68       33       64 1
  69       33       65 1
  70       35       66 1
  71       35       67 1
  72       36       68 1
  73       37       69 1

@<TRIPOS>MOLECULE

  69   73
SMALL
USER_CHARGES
@<TRIPOS>ATOM
   1 C1          -1.9440     2.5483    -3.8920 C.3          1    LIG   0.0000
   2 C2          -0.8328     3.5847    -3.9410 C.ar         1    LIG   0.0000
   3 C3          -0.7115     4.4227    -5.0445 C.ar         1    LIG   0.0000
   4 C4           0.3058     5.3710    -5.0894 C.ar         1    LIG   0.0000
   5 C5           1.2009     5.4815    -4.0304 C.ar         1    LIG   0.0000
   6 C6           1.0795     4.6433    -2.9268 C.ar         1    LIG   0.0000
   7 C7           0.0624     3.6954    -2.8816 C.ar         1    LIG   0.0000
   8 N8          -0.0601     2.8521    -1.7702 N.am         1    LIG   0.0000
   9 C9           1.0525     2.4958    -1.0547 C.2          1    LIG   0.0000
  10 O10          2.1321     2.9063    -1.3803 O.2          1    LIG   0.0000
  11 C11          0.9195     1.5805     0.1517 C.3          1    LIG   0.0000
  12 C12          1.8121     0.3740    -0.1204 C.3          1    LIG   0.0000
  13 C13          1.2045    -0.9363     0.3618 C.3          1    LIG   0.0000
  14 C14         -0.1686    -1.0654    -0.2769 C.ar         1    LIG   0.0000
  15 C15         -0.6132    -2.2502    -0.8550 C.ar         1    LIG   0.0000
  16 C16         -1.8688    -2.3188    -1.4509 C.ar         1    LIG   0.0000
  17 C17         -2.6963    -1.2010    -1.4705 C.ar         1    LIG   0.0000
  18 C18         -2.2380    -0.0270    -0.8806 C.ar         1    LIG   0.0000
  19 C19         -0.9835     0.0593    -0.2789 C.ar         1    LIG   0.0000
  20 N20         -0.5005     1.2321     0.3217 N.am         1    LIG   0.0000
  21 C21         -1.3209     2.0830     1.0722 C.2          1    LIG   0.0000
  22 O22         -2.4822     1.8198     1.2206 O.2          1    LIG   0.0000
  23 C23         -0.7670     3.2828     1.6705 C.ar         1    LIG   0.0000
  24 C24          0.2715     3.1748     2.5907 C.ar         1    LIG   0.0000
  25 C25          0.8086     4.3196     3.1698 C.ar         1    LIG   0.0000
  26 C26          0.2940     5.5627     2.8176 C.ar         1    LIG   0.0000
  27 N27          0.8297     6.7178     3.3969 N.pl3        1    LIG   0.0000
  28 C28          0.2663     8.0225     3.0115 C.3          1    LIG   0.0000
  29 C29          0.3034     9.0259     4.1562 C.3          1    LIG   0.0000
  30 C30          1.6441     9.0376     4.8786 C.3          1    LIG   0.0000
  31 C31          1.8854     7.6454     5.4475 C.3          1    LIG   0.0000
  32 C32          3.1764     7.6095     6.2490 C.2          1    LIG   0.0000
  33 N33          3.3659     8.4889     7.2823 N.am         1    LIG   0.0000
  34 O34          4.0297     6.8109     5.9767 O.2          1    LIG   0.0000
  35 C35          1.9283     6.5743     4.3667 C.3          1    LIG   0.0000
  36 C36         -0.7440     5.6806     1.8995 C.ar         1    LIG   0.0000
  37 C37         -1.2745     4.5304     1.3241 C.ar         1    LIG   0.0000
  38 H            1.2448     2.0573     0.9683 H            1    LIG   0.0000
  39 H            1.1307     7.4295     6.0671 H            1    LIG   0.0000
  40 H           -2.4902     2.6055    -4.7276 H            1    LIG   0.0000
  41 H           -1.5445     1.6346    -3.8168 H            1    LIG   0.0000
  42 H           -2.5280     2.7230    -3.0993 H            1    LIG   0.0000
  43 H           -1.3554     4.3436    -5.8055 H            1    LIG   0.0000
  44 H            0.3934     5.9731    -5.8830 H            1    LIG   0.0000
  45 H            1.9316     6.1634    -4.0624 H            1    LIG   0.0000
  46 H            1.7236     4.7222    -2.1659 H            1    LIG   0.0000
  47 H           -0.9598     2.5101    -1.4989 H            1    LIG   0.0000
  48 H            2.6852     0.5116     0.3473 H            1    LIG   0.0000
  49 H            1.9685     0.3091    -1.1060 H            1    LIG   0.0000
  50 H            1.7833    -1.7033     0.0849 H            1    LIG   0.0000
  51 H            1.1181    -0.9264     1.3580 H            1    LIG   0.0000
  52 H           -0.0255    -3.0592    -0.8421 H            1    LIG   0.0000
  53 H           -2.1773    -3.1746    -1.8663 H            1    LIG   0.0000
  54 H           -3.5992    -1.2401    -1.8984 H            1    LIG   0.0000
  55 H           -2.8275     0.7807    -0.8886 H            1    LIG   0.0000
  56 H            0.6313     2.2745     2.8354 H            1    LIG   0.0000
  57 H            1.5555     4.2497     3.8311 H            1    LIG   0.0000
  58 H           -0.6838     7.8920     2.7283 H            1    LIG   0.0000
  59 H            0.7952     8.3881     2.2456 H            1    LIG   0.0000
  60 H           -0.4127     8.7896     4.8130 H            1    LIG   0.0000
  61 H            0.1296     9.9392     3.7878 H            1    LIG   0.0000
  62 H            2.3736     9.2726     4.2362 H            1    LIG   0.0000
  63 H            1.6241     9.7083     5.6200 H            1    LIG   0.0000
  64 H            2.6548     9.1544     7.5093 H            1    LIG   0.0000
  65 H            4.2152     8.4653     7.8096 H            1    LIG   0.0000
  66 H            2.7989     6.6432     3.8796 H            1    LIG   0.0000
  67 H            1.8594     5.6760     4.8007 H            1    LIG   0.0000
  68 H           -1.1045     6.5810     1.6560 H            1    LIG   0.0000
  69 H           -2.0204     4.6007     0.6618 H            1    LIG   0.0000
@<TRIPOS>BOND
   1        1        2 1
   2        2        3 ar
   3        3        4 ar
   4        4        5 ar
   5        5        6 ar
   6        6        7 ar
   7        7        2 ar
   8        7        8 1
   9        8        9 am
  10        9       10 2
  11        9       11 1
  12       11       12 1
  13       12       13 1
  14       13       14 1
  15       14       15 ar
  16       15       16 ar
  17       16       17 ar
  18       17       18 ar
  19       18       19 ar
  20       19       14 ar
  21       19       20 1
  22       20       11 1
  23       20       21 am
  24       21       22 2
  25       21       23 1
  26       23       24 ar
  27       24       25 ar
  28       25       26 ar
  29       26       27 1
  30       27       28 1
  31       28       29 1
  32       29       30 1
  33       30       31 1
  34       31       32 1
  35       32       33 am
  36       32       34 2
  37       31       35 1
  38       35       27 1
  39       26       36 ar
  40       36       37 ar
  41       37       23 ar
  42       11       38 1
  43       31       39 1
  44        1       40 1
  45        1       41 1
  46        1       42 1
  47        3       43 1
  48        4       44 1
  49        5       45 1
  50        6       46 1
  51        8       47 1
  52       12       48 1
  53       12       49 1
  54       13       50 1
  55       13       51 1
  56       15       52 1
  57       16       53 1
  58       17       54 1
  59       18       55 1
  60       24       56 1
  61       25       57 1
  62       28       58 1
  63       28       59 1
  64       29       60 1
  65       29       61 1
  66       30       62 1
  67       30       63 1
  68       33       64 1
  69       33       65 1
  70       35       66 1
  71       35       67 1
  72       36       68 1
  73       37       69 1

@<TRIPOS>MOLECULE

  69   73
SMALL
USER_CHARGES
@<TRIPOS>ATOM
   1 C1          -1.9440     2.5483    -3.8920 C.3          1    LIG   0.0000
   2 C2          -0.8328     3.5847    -3.9410 C.ar         1    LIG   0.0000
   3 C3          -0.7115     4.4227    -5.0445 C.ar         1    LIG   0.0000
   4 C4           0.3058     5.3710    -5.0894 C.ar         1    LIG   0.0000
   5 C5           1.2009     5.4815    -4.0304 C.ar         1    LIG   0.0000
   6 C6           1.0795     4.6433    -2.9268 C.ar         1    LIG   0.0000
   7 C7           0.0624     3.6954    -2.8816 C.ar         1    LIG   0.0000
   8 N8          -0.0601     2.8521    -1.7702 N.am         1    LIG   0.0000
   9 C9           1.0525     2.4958    -1.0547 C.2          1    LIG   0.0000
  10 O10          2.1321     2.9063    -1.3803 O.2          1    LIG   0.0000
  11 C11          0.9195     1.5805     0.1517 C.3          1    LIG   0.0000
  12 C12          1.8121     0.3740    -0.1204 C.3          1    LIG   0.0000
  13 C13          1.2045    -0.9363     0.3618 C.3          1    LIG   0.0000
  14 C14         -0.1686    -1.0654    -0.2769 C.ar         1    LIG   0.0000
  15 C15         -0.6132    -2.2502    -0.8550 C.ar         1    LIG   0.0000
  16 C16         -1.8688    -2.3188    -1.4509 C.ar         1    LIG   0.0000
  17 C17         -2.6963    -1.2010    -1.4705 C.ar         1    LIG   0.0000
  18 C18         -2.2380    -0.0270    -0.8806 C.ar         1    LIG   0.0000
  19 C19         -0.9835     0.0593    -0.2789 C.ar         1    LIG   0.0000
  20 N20         -0.5005     1.2321     0.3217 N.am         1    LIG   0.0000
  21 C21         -1.3209     2.0830     1.0722 C.2          1    LIG   0.0000
  22 O22         -2.4822     1.8198     1.2206 O.2          1    LIG   0.0000
  23 C23         -0.7670     3.2828     1.6705 C.ar         1    LIG   0.0000
  24 C24         -0.1951     4.2554     0.8557 C.ar         1    LIG   0.0000
  25 C25          0.3389     5.4087     1.4203 C.ar         1    LIG   0.0000
  26 C26          0.2931     5.5715     2.8008 C.ar         1    LIG   0.0000
  27 N27          0.8314     6.7345     3.3774 N.pl3        1    LIG   0.0000
  28 C28          0.8128     6.9648     4.8297 C.3          1    LIG   0.0000
  29 C29          0.6952     8.4607     5.0963 C.3          1    LIG   0.0000
  30 C30          1.8614     9.2386     4.5093 C.3          1    LIG   0.0000
  31 C31          2.5244     8.4776     3.3702 C.3          1    LIG   0.0000
  32 C32          3.2980     9.4755     2.5238 C.2          1    LIG   0.0000
  33 N33          3.9783     9.0498     1.4135 N.am         1    LIG   0.0000
  34 O34          3.3129    10.6361     2.8283 O.2          1    LIG   0.0000
  35 C35          1.4438     7.7869     2.5547 C.3          1    LIG   0.0000
  36 C36         -0.2756     4.6049     3.6232 C.ar         1    LIG   0.0000
  37 C37         -0.8086     3.4548     3.0499 C.ar         1    LIG   0.0000
  38 H            1.2448     2.0573     0.9683 H            1    LIG   0.0000
  39 H            3.1525     7.7945     3.7429 H            1    LIG   0.0000
  40 H           -2.4902     2.6055    -4.7276 H            1    LIG   0.0000
  41 H           -1.5445     1.6346    -3.8168 H            1    LIG   0.0000
  42 H           -2.5280     2.7230    -3.0993 H            1    LIG   0.0000
  43 H           -1.3554     4.3436    -5.8055 H            1    LIG   0.0000
  44 H            0.3934     5.9731    -5.8830 H            1    LIG   0.0000
  45 H            1.9316     6.1634    -4.0624 H            1    LIG   0.0000
  46 H            1.7236     4.7222    -2.1659 H            1    LIG   0.0000
  47 H           -0.9598     2.5101    -1.4989 H            1    LIG   0.0000
  48 H            2.6852     0.5116     0.3473 H            1    LIG   0.0000
  49 H            1.9685     0.3091    -1.1060 H            1    LIG   0.0000
  50 H            1.7833    -1.7033     0.0849 H            1    LIG   0.0000
  51 H            1.1181    -0.9264     1.3580 H            1    LIG   0.0000
  52 H           -0.0255    -3.0592    -0.8421 H            1    LIG   0.0000
  53 H           -2.1773    -3.1746    -1.8663 H            1    LIG   0.0000
  54 H           -3.5992    -1.2401    -1.8984 H            1    LIG   0.0000
  55 H           -2.8275     0.7807    -0.8886 H            1    LIG   0.0000
  56 H           -0.1682     4.1250    -0.1354 H            1    LIG   0.0000
  57 H            0.7506     6.1122     0.8410 H            1    LIG   0.0000
  58 H            1.6589     6.6180     5.2345 H            1    LIG   0.0000
  59 H            0.0309     6.4902     5.2339 H            1    LIG   0.0000
  60 H            0.6717     8.6114     6.0846 H            1    LIG   0.0000
  61 H           -0.1540     8.7954     4.6878 H            1    LIG   0.0000
  62 H            1.5259    10.1145     4.1626 H            1    LIG   0.0000
  63 H            2.5376     9.4015     5.2279 H            1    LIG   0.0000
  64 H            3.9659     8.0826     1.1598 H            1    LIG   0.0000
  65 H            4.4873     9.7063     0.8567 H            1    LIG   0.0000
  66 H            0.7472     8.4527     2.2872 H            1    LIG   0.0000
  67 H            1.8486     7.3806     1.7355 H            1    LIG   0.0000
  68 H           -0.3012     4.7350     4.6144 H            1    LIG   0.0000
  69 H           -1.2215     2.7522     3.6294 H            1    LIG   0.0000
@<TRIPOS>BOND
   1        1        2 1
   2        2        3 ar
   3        3        4 ar
   4        4        5 ar
   5        5        6 ar
   6        6        7 ar
   7        7        2 ar
   8        7        8 1
   9        8        9 am
  10        9       10 2
  11        9       11 1
  12       11       12 1
  13       12       13 1
  14       13       14 1
  15       14       15 ar
  16       15       16 ar
  17       16       17 ar
  18       17       18 ar
  19       18       19 ar
  20       19       14 ar
  21       19       20 1
  22       20       11 1
  23       20       21 am
  24       21       22 2
  25       21       23 1
  26       23       24 ar
  27       24       25 ar
  28       25       26 ar
  29       26       27 1
  30       27       28 1
  31       28       29 1
  32       29       30 1
  33       30       31 1
  34       31       32 1
  35       32       33 am
  36       32       34 2
  37       31       35 1
  38       35       27 1
  39       26       36 ar
  40       36       37 ar
  41       37       23 ar
  42       11       38 1
  43       31       39 1
  44        1       40 1
  45        1       41 1
  46        1       42 1
  47        3       43 1
  48        4       44 1
  49        5       45 1
  50        6       46 1
  51        8       47 1
  52       12       48 1
  53       12       49 1
  54       13       50 1
  55       13       51 1
  56       15       52 1
  57       16       53 1
  58       17       54 1
  59       18       55 1
  60       24       56 1
  61       25       57 1
  62       28       58 1
  63       28       59 1
  64       29       60 1
  65       29       61 1
  66       30       62 1
  67       30       63 1
  68       33       64 1
  69       33       65 1
  70       35       66 1
  71       35       67 1
  72       36       68 1
  73       37       69 1

@<TRIPOS>MOLECULE

  69   73
SMALL
USER_CHARGES
@<TRIPOS>ATOM
   1 C1           1.4286     1.9688    -3.9598 C.3          1    LIG   0.0000
   2 C2           2.0033     3.3664    -3.7938 C.ar         1    LIG   0.0000
   3 C3           2.1244     4.2042    -4.8975 C.ar         1    LIG   0.0000
   4 C4           2.6508     5.4832    -4.7456 C.ar         1    LIG   0.0000
   5 C5           3.0551     5.9243    -3.4899 C.ar         1    LIG   0.0000
   6 C6           2.9341     5.0864    -2.3861 C.ar         1    LIG   0.0000
   7 C7           2.4076     3.8077    -2.5378 C.ar         1    LIG   0.0000
   8 N8           2.2850     2.9645    -1.4264 N.am         1    LIG   0.0000
   9 C9           1.0525     2.4958    -1.0547 C.2          1    LIG   0.0000
  10 O10          0.0779     2.8079    -1.6815 O.2          1    LIG   0.0000
  11 C11          0.9195     1.5805     0.1517 C.3          1    LIG   0.0000
  12 C12          1.8121     0.3740    -0.1204 C.3          1    LIG   0.0000
  13 C13          1.2045    -0.9363     0.3618 C.3          1    LIG   0.0000
  14 C14         -0.1686    -1.0654    -0.2769 C.ar         1    LIG   0.0000
  15 C15         -0.6132    -2.2502    -0.8550 C.ar         1    LIG   0.0000
  16 C16         -1.8688    -2.3188    -1.4509 C.ar         1    LIG   0.0000
  17 C17         -2.6963    -1.2010    -1.4705 C.ar         1    LIG   0.0000
  18 C18         -2.2380    -0.0270    -0.8806 C.ar         1    LIG   0.0000
  19 C19         -0.9835     0.0593    -0.2789 C.ar         1    LIG   0.0000
  20 N20         -0.5005     1.2321     0.3217 N.am         1    LIG   0.0000
  21 C21         -1.3209     2.0830     1.0722 C.2          1    LIG   0.0000
  22 O22         -2.4822     1.8198     1.2206 O.2          1    LIG   0.0000
  23 C23         -0.7670     3.2828     1.6705 C.ar         1    LIG   0.0000
  24 C24         -1.5797     4.3978     1.8521 C.ar         1    LIG   0.0000
  25 C25         -1.0573     5.5527     2.4245 C.ar         1    LIG   0.0000
  26 C26          0.2795     5.5744     2.8076 C.ar         1    LIG   0.0000
  27 N27          0.8110     6.7332     3.3834 N.pl3        1    LIG   0.0000
  28 C28          2.2297     6.7340     3.7776 C.3          1    LIG   0.0000
  29 C29          2.8690     8.1073     3.6228 C.3          1    LIG   0.0000
  30 C30          1.9956     9.2236     4.1802 C.3          1    LIG   0.0000
  31 C31          0.6766     9.2153     3.4184 C.3          1    LIG   0.0000
  32 C32         -0.2146    10.3584     3.8760 C.2          1    LIG   0.0000
  33 N33          0.2488    11.6470     3.8349 N.am         1    LIG   0.0000
  34 O34         -1.3241    10.1322     4.2732 O.2          1    LIG   0.0000
  35 C35         -0.0717     7.8977     3.5645 C.3          1    LIG   0.0000
  36 C36          1.0996     4.4654     2.6295 C.ar         1    LIG   0.0000
  37 C37          0.5685     3.3139     2.0574 C.ar         1    LIG   0.0000
  38 H            1.2448     2.0573     0.9683 H            1    LIG   0.0000
  39 H            0.8789     9.3501     2.4484 H            1    LIG   0.0000
  40 H            1.1920     1.8174    -4.9195 H            1    LIG   0.0000
  41 H            2.1077     1.2929    -3.6733 H            1    LIG   0.0000
  42 H            0.6081     1.8766    -3.3957 H            1    LIG   0.0000
  43 H            1.8331     3.8873    -5.8002 H            1    LIG   0.0000
  44 H            2.7385     6.0854    -5.5392 H            1    LIG   0.0000
  45 H            3.4329     6.8438    -3.3807 H            1    LIG   0.0000
  46 H            3.2255     5.4032    -1.4836 H            1    LIG   0.0000
  47 H            3.0972     2.7044    -0.9041 H            1    LIG   0.0000
  48 H            2.6852     0.5116     0.3473 H            1    LIG   0.0000
  49 H            1.9685     0.3091    -1.1060 H            1    LIG   0.0000
  50 H            1.7833    -1.7033     0.0849 H            1    LIG   0.0000
  51 H            1.1181    -0.9264     1.3580 H            1    LIG   0.0000
  52 H           -0.0255    -3.0592    -0.8421 H            1    LIG   0.0000
  53 H           -2.1773    -3.1746    -1.8663 H            1    LIG   0.0000
  54 H           -3.5992    -1.2401    -1.8984 H            1    LIG   0.0000
  55 H           -2.8275     0.7807    -0.8886 H            1    LIG   0.0000
  56 H           -2.5390     4.3686     1.5713 H            1    LIG   0.0000
  57 H           -1.6356     6.3574     2.5588 H            1    LIG   0.0000
  58 H            2.7241     6.0820     3.2027 H            1    LIG   0.0000
  59 H            2.2981     6.4530     4.7349 H            1    LIG   0.0000
  60 H            3.0277     8.2794     2.6506 H            1    LIG   0.0000
  61 H            3.7429     8.1108     4.1090 H            1    LIG   0.0000
  62 H            1.8262     9.0679     5.1534 H            1    LIG   0.0000
  63 H            2.4523    10.1047     4.0581 H            1    LIG   0.0000
  64 H            1.1734    11.8355     3.5039 H            1    LIG   0.0000
  65 H           -0.3375    12.3990     4.1360 H            1    LIG   0.0000
  66 H           -0.4757     7.8565     4.4784 H            1    LIG   0.0000
  67 H           -0.7974     7.8617     2.8774 H            1    LIG   0.0000
  68 H            2.0593     4.4954     2.9092 H            1    LIG   0.0000
  69 H            1.1467     2.5089     1.9244 H            1    LIG   0.0000
@<TRIPOS>BOND
   1        1        2 1
   2        2        3 ar
   3        3        4 ar
   4        4        5 ar
   5        5        6 ar
   6        6        7 ar
   7        7        2 ar
   8        7        8 1
   9        8        9 am
  10        9       10 2
  11        9       11 1
  12       11       12 1
  13       12       13 1
  14       13       14 1
  15       14       15 ar
  16       15       16 ar
  17       16       17 ar
  18       17       18 ar
  19       18       19 ar
  20       19       14 ar
  21       19       20 1
  22       20       11 1
  23       20       21 am
  24       21       22 2
  25       21       23 1
  26       23       24 ar
  27       24       25 ar
  28       25       26 ar
  29       26       27 1
  30       27       28 1
  31       28       29 1
  32       29       30 1
  33       30       31 1
  34       31       32 1
  35       32       33 am
  36       32       34 2
  37       31       35 1
  38       35       27 1
  39       26       36 ar
  40       36       37 ar
  41       37       23 ar
  42       11       38 1
  43       31       39 1
  44        1       40 1
  45        1       41 1
  46        1       42 1
  47        3       43 1
  48        4       44 1
  49        5       45 1
  50        6       46 1
  51        8       47 1
  52       12       48 1
  53       12       49 1
  54       13       50 1
  55       13       51 1
  56       15       52 1
  57       16       53 1
  58       17       54 1
  59       18       55 1
  60       24       56 1
  61       25       57 1
  62       28       58 1
  63       28       59 1
  64       29       60 1
  65       29       61 1
  66       30       62 1
  67       30       63 1
  68       33       64 1
  69       33       65 1
  70       35       66 1
  71       35       67 1
  72       36       68 1
  73       37       69 1

@<TRIPOS>MOLECULE

  69   73
SMALL
USER_CHARGES
@<TRIPOS>ATOM
   1 C1           0.8833     5.4496    -1.3789 C.3          1    LIG   0.0000
   2 C2           1.7428     5.0298    -2.5605 C.ar         1    LIG   0.0000
   3 C3           1.8651     5.8676    -3.6641 C.ar         1    LIG   0.0000
   4 C4           2.6515     5.4830    -4.7457 C.ar         1    LIG   0.0000
   5 C5           3.3159     4.2612    -4.7230 C.ar         1    LIG   0.0000
   6 C6           3.1935     3.4233    -3.6193 C.ar         1    LIG   0.0000
   7 C7           2.4076     3.8077    -2.5378 C.ar         1    LIG   0.0000
   8 N8           2.2850     2.9645    -1.4264 N.am         1    LIG   0.0000
   9 C9           1.0525     2.4958    -1.0547 C.2          1    LIG   0.0000
  10 O10          0.0779     2.8079    -1.6815 O.2          1    LIG   0.0000
  11 C11          0.9195     1.5805     0.1517 C.3          1    LIG   0.0000
  12 C12          1.8121     0.3740    -0.1204 C.3          1    LIG   0.0000
  13 C13          1.2045    -0.9363     0.3618 C.3          1    LIG   0.0000
  14 C14         -0.1686    -1.0654    -0.2769 C.ar         1    LIG   0.0000
  15 C15         -0.6132    -2.2502    -0.8550 C.ar         1    LIG   0.0000
  16 C16         -1.8688    -2.3188    -1.4509 C.ar         1    LIG   0.0000
  17 C17         -2.6963    -1.2010    -1.4705 C.ar         1    LIG   0.0000
  18 C18         -2.2380    -0.0270    -0.8806 C.ar         1    LIG   0.0000
  19 C19         -0.9835     0.0593    -0.2789 C.ar         1    LIG   0.0000
  20 N20         -0.5005     1.2321     0.3217 N.am         1    LIG   0.0000
  21 C21         -1.3209     2.0830     1.0722 C.2          1    LIG   0.0000
  22 O22         -2.4822     1.8198     1.2206 O.2          1    LIG   0.0000
  23 C23         -0.7670     3.2828     1.6705 C.ar         1    LIG   0.0000
  24 C24         -1.5797     4.3978     1.8521 C.ar         1    LIG   0.0000
  25 C25         -1.0573     5.5527     2.4245 C.ar         1    LIG   0.0000
  26 C26          0.2795     5.5744     2.8076 C.ar         1    LIG   0.0000
  27 N27          0.8107     6.7326     3.3831 N.pl3        1    LIG   0.0000
  28 C28         -0.0713     7.9005     3.5593 C.3          1    LIG   0.0000
  29 C29          0.6688     9.2240     3.4236 C.3          1    LIG   0.0000
  30 C30          2.0353     9.2037     4.0971 C.3          1    LIG   0.0000
  31 C31          2.9055     8.0637     3.5839 C.3          1    LIG   0.0000
  32 C32          3.2948     8.2773     2.1290 C.2          1    LIG   0.0000
  33 N33          3.9174     9.4372     1.7497 N.am         1    LIG   0.0000
  34 O34          3.0564     7.4298     1.3135 O.2          1    LIG   0.0000
  35 C35          2.2302     6.7130     3.7741 C.3          1    LIG   0.0000
  36 C36          1.0996     4.4654     2.6295 C.ar         1    LIG   0.0000
  37 C37          0.5685     3.3139     2.0574 C.ar         1    LIG   0.0000
  38 H            1.2448     2.0573     0.9683 H            1    LIG   0.0000
  39 H            3.7470     8.0594     4.1241 H            1    LIG   0.0000
  40 H            0.4824     6.3475    -1.5607 H            1    LIG   0.0000
  41 H            0.1532     4.7798    -1.2432 H            1    LIG   0.0000
  42 H            1.4489     5.4975    -0.5556 H            1    LIG   0.0000
  43 H            1.3879     6.7462    -3.6801 H            1    LIG   0.0000
  44 H            2.7389     6.0851    -5.5394 H            1    LIG   0.0000
  45 H            3.8816     3.9852    -5.5001 H            1    LIG   0.0000
  46 H            3.6706     2.5446    -3.6034 H            1    LIG   0.0000
  47 H            3.0972     2.7044    -0.9041 H            1    LIG   0.0000
  48 H            2.6852     0.5116     0.3473 H            1    LIG   0.0000
  49 H            1.9685     0.3091    -1.1060 H            1    LIG   0.0000
  50 H            1.7833    -1.7033     0.0849 H            1    LIG   0.0000
  51 H            1.1181    -0.9264     1.3580 H            1    LIG   0.0000
  52 H           -0.0255    -3.0592    -0.8421 H            1    LIG   0.0000
  53 H           -2.1773    -3.1746    -1.8663 H            1    LIG   0.0000
  54 H           -3.5992    -1.2401    -1.8984 H            1    LIG   0.0000
  55 H           -2.8275     0.7807    -0.8886 H            1    LIG   0.0000
  56 H           -2.5390     4.3686     1.5713 H            1    LIG   0.0000
  57 H           -1.6356     6.3574     2.5588 H            1    LIG   0.0000
  58 H           -0.4823     7.8561     4.4698 H            1    LIG   0.0000
  59 H           -0.7914     7.8645     2.8664 H            1    LIG   0.0000
  60 H            0.1161     9.9443     3.8426 H            1    LIG   0.0000
  61 H            0.7939     9.4227     2.4516 H            1    LIG   0.0000
  62 H            2.4984    10.0711     3.9148 H            1    LIG   0.0000
  63 H            1.9081     9.0946     5.0830 H            1    LIG   0.0000
  64 H            4.1160    10.1434     2.4293 H            1    LIG   0.0000
  65 H            4.1734     9.5776     0.7932 H            1    LIG   0.0000
  66 H            2.7074     6.0343     3.2158 H            1    LIG   0.0000
  67 H            2.2937     6.4556     4.7384 H            1    LIG   0.0000
  68 H            2.0593     4.4954     2.9092 H            1    LIG   0.0000
  69 H            1.1467     2.5089     1.9244 H            1    LIG   0.0000
@<TRIPOS>BOND
   1        1        2 1
   2        2        3 ar
   3        3        4 ar
   4        4        5 ar
   5        5        6 ar
   6        6        7 ar
   7        7        2 ar
   8        7        8 1
   9        8        9 am
  10        9       10 2
  11        9       11 1
  12       11       12 1
  13       12       13 1
  14       13       14 1
  15       14       15 ar
  16       15       16 ar
  17       16       17 ar
  18       17       18 ar
  19       18       19 ar
  20       19       14 ar
  21       19       20 1
  22       20       11 1
  23       20       21 am
  24       21       22 2
  25       21       23 1
  26       23       24 ar
  27       24       25 ar
  28       25       26 ar
  29       26       27 1
  30       27       28 1
  31       28       29 1
  32       29       30 1
  33       30       31 1
  34       31       32 1
  35       32       33 am
  36       32       34 2
  37       31       35 1
  38       35       27 1
  39       26       36 ar
  40       36       37 ar
  41       37       23 ar
  42       11       38 1
  43       31       39 1
  44        1       40 1
  45        1       41 1
  46        1       42 1
  47        3       43 1
  48        4       44 1
  49        5       45 1
  50        6       46 1
  51        8       47 1
  52       12       48 1
  53       12       49 1
  54       13       50 1
  55       13       51 1
  56       15       52 1
  57       16       53 1
  58       17       54 1
  59       18       55 1
  60       24       56 1
  61       25       57 1
  62       28       58 1
  63       28       59 1
  64       29       60 1
  65       29       61 1
  66       30       62 1
  67       30       63 1
  68       33       64 1
  69       33       65 1
  70       35       66 1
  71       35       67 1
  72       36       68 1
  73       37       69 1

@<TRIPOS>MOLECULE

  69   73
SMALL
USER_CHARGES
@<TRIPOS>ATOM
   1 C1          -1.4619     5.3372    -1.7228 C.3          1    LIG   0.0000
   2 C2          -0.6024     4.9174    -2.9044 C.ar         1    LIG   0.0000
   3 C3          -0.4801     5.7552    -4.0079 C.ar         1    LIG   0.0000
   4 C4           0.3063     5.3707    -5.0896 C.ar         1    LIG   0.0000
   5 C5           0.9708     4.1489    -5.0668 C.ar         1    LIG   0.0000
   6 C6           0.8484     3.3110    -3.9632 C.ar         1    LIG   0.0000
   7 C7           0.0624     3.6954    -2.8816 C.ar         1    LIG   0.0000
   8 N8          -0.0601     2.8521    -1.7702 N.am         1    LIG   0.0000
   9 C9           1.0525     2.4958    -1.0547 C.2          1    LIG   0.0000
  10 O10          2.1321     2.9063    -1.3803 O.2          1    LIG   0.0000
  11 C11          0.9195     1.5805     0.1517 C.3          1    LIG   0.0000
  12 C12          1.8121     0.3740    -0.1204 C.3          1    LIG   0.0000
  13 C13          1.2045    -0.9363     0.3618 C.3          1    LIG   0.0000
  14 C14         -0.1686    -1.0654    -0.2769 C.ar         1    LIG   0.0000
  15 C15         -0.6132    -2.2502    -0.8550 C.ar         1    LIG   0.0000
  16 C16         -1.8688    -2.3188    -1.4509 C.ar         1    LIG   0.0000
  17 C17         -2.6963    -1.2010    -1.4705 C.ar         1    LIG   0.0000
  18 C18         -2.2380    -0.0270    -0.8806 C.ar         1    LIG   0.0000
  19 C19         -0.9835     0.0593    -0.2789 C.ar         1    LIG   0.0000
  20 N20         -0.5005     1.2321     0.3217 N.am         1    LIG   0.0000
  21 C21         -1.3209     2.0830     1.0722 C.2          1    LIG   0.0000
  22 O22         -2.4822     1.8198     1.2206 O.2          1    LIG   0.0000
  23 C23         -0.7670     3.2828     1.6705 C.ar         1    LIG   0.0000
  24 C24         -1.5797     4.3978     1.8521 C.ar         1    LIG   0.0000
  25 C25         -1.0573     5.5527     2.4245 C.ar         1    LIG   0.0000
  26 C26          0.2795     5.5744     2.8076 C.ar         1    LIG   0.0000
  27 N27          0.8107     6.7326     3.3831 N.pl3        1    LIG   0.0000
  28 C28          2.2283     6.7326     3.7872 C.3          1    LIG   0.0000
  29 C29          2.4925     7.5988     5.0110 C.3          1    LIG   0.0000
  30 C30          1.7184     8.9107     4.9793 C.3          1    LIG   0.0000
  31 C31          0.2213     8.6838     4.8133 C.3          1    LIG   0.0000
  32 C32         -0.3762     8.0162     6.0426 C.2          1    LIG   0.0000
  33 N33         -0.2077     8.5814     7.2791 N.am         1    LIG   0.0000
  34 O34         -0.9951     6.9944     5.9292 O.2          1    LIG   0.0000
  35 C35         -0.0890     7.8855     3.5551 C.3          1    LIG   0.0000
  36 C36          1.0996     4.4654     2.6295 C.ar         1    LIG   0.0000
  37 C37          0.5685     3.3139     2.0574 C.ar         1    LIG   0.0000
  38 H            1.2448     2.0573     0.9683 H            1    LIG   0.0000
  39 H           -0.2110     9.5803     4.7164 H            1    LIG   0.0000
  40 H           -1.8628     6.2352    -1.9045 H            1    LIG   0.0000
  41 H           -2.1920     4.6675    -1.5871 H            1    LIG   0.0000
  42 H           -0.8963     5.3852    -0.8995 H            1    LIG   0.0000
  43 H           -0.9573     6.6339    -4.0239 H            1    LIG   0.0000
  44 H            0.3937     5.9728    -5.8832 H            1    LIG   0.0000
  45 H            1.5364     3.8729    -5.8439 H            1    LIG   0.0000
  46 H            1.3254     2.4323    -3.9472 H            1    LIG   0.0000
  47 H           -0.9598     2.5101    -1.4989 H            1    LIG   0.0000
  48 H            2.6852     0.5116     0.3473 H            1    LIG   0.0000
  49 H            1.9685     0.3091    -1.1060 H            1    LIG   0.0000
  50 H            1.7833    -1.7033     0.0849 H            1    LIG   0.0000
  51 H            1.1181    -0.9264     1.3580 H            1    LIG   0.0000
  52 H           -0.0255    -3.0592    -0.8421 H            1    LIG   0.0000
  53 H           -2.1773    -3.1746    -1.8663 H            1    LIG   0.0000
  54 H           -3.5992    -1.2401    -1.8984 H            1    LIG   0.0000
  55 H           -2.8275     0.7807    -0.8886 H            1    LIG   0.0000
  56 H           -2.5390     4.3686     1.5713 H            1    LIG   0.0000
  57 H           -1.6356     6.3574     2.5588 H            1    LIG   0.0000
  58 H            2.7775     7.0783     3.0264 H            1    LIG   0.0000
  59 H            2.5012     5.7934     3.9955 H            1    LIG   0.0000
  60 H            3.4702     7.8049     5.0523 H            1    LIG   0.0000
  61 H            2.2245     7.0886     5.8282 H            1    LIG   0.0000
  62 H            1.8779     9.4009     5.8362 H            1    LIG   0.0000
  63 H            2.0485     9.4623     4.2133 H            1    LIG   0.0000
  64 H            0.3081     9.4329     7.3736 H            1    LIG   0.0000
  65 H           -0.6005     8.1425     8.0872 H            1    LIG   0.0000
  66 H           -1.0302     7.5523     3.6107 H            1    LIG   0.0000
  67 H            0.0054     8.4872     2.7620 H            1    LIG   0.0000
  68 H            2.0593     4.4954     2.9092 H            1    LIG   0.0000
  69 H            1.1467     2.5089     1.9244 H            1    LIG   0.0000
@<TRIPOS>BOND
   1        1        2 1
   2        2        3 ar
   3        3        4 ar
   4        4        5 ar
   5        5        6 ar
   6        6        7 ar
   7        7        2 ar
   8        7        8 1
   9        8        9 am
  10        9       10 2
  11        9       11 1
  12       11       12 1
  13       12       13 1
  14       13       14 1
  15       14       15 ar
  16       15       16 ar
  17       16       17 ar
  18       17       18 ar
  19       18       19 ar
  20       19       14 ar
  21       19       20 1
  22       20       11 1
  23       20       21 am
  24       21       22 2
  25       21       23 1
  26       23       24 ar
  27       24       25 ar
  28       25       26 ar
  29       26       27 1
  30       27       28 1
  31       28       29 1
  32       29       30 1
  33       30       31 1
  34       31       32 1
  35       32       33 am
  36       32       34 2
  37       31       35 1
  38       35       27 1
  39       26       36 ar
  40       36       37 ar
  41       37       23 ar
  42       11       38 1
  43       31       39 1
  44        1       40 1
  45        1       41 1
  46        1       42 1
  47        3       43 1
  48        4       44 1
  49        5       45 1
  50        6       46 1
  51        8       47 1
  52       12       48 1
  53       12       49 1
  54       13       50 1
  55       13       51 1
  56       15       52 1
  57       16       53 1
  58       17       54 1
  59       18       55 1
  60       24       56 1
  61       25       57 1
  62       28       58 1
  63       28       59 1
  64       29       60 1
  65       29       61 1
  66       30       62 1
  67       30       63 1
  68       33       64 1
  69       33       65 1
  70       35       66 1
  71       35       67 1
  72       36       68 1
  73       37       69 1

@<TRIPOS>MOLECULE

  69   73
SMALL
USER_CHARGES
@<TRIPOS>ATOM
   1 C1           0.5067     0.0742    -3.9768 C.3          1    LIG   0.0000
   2 C2           1.6389     0.8172    -4.6676 C.ar         1    LIG   0.0000
   3 C3           1.7179     0.8287    -6.0562 C.ar         1    LIG   0.0000
   4 C4           2.7545     1.5084    -6.6884 C.ar         1    LIG   0.0000
   5 C5           3.7111     2.1771    -5.9318 C.ar         1    LIG   0.0000
   6 C6           3.6321     2.1655    -4.5430 C.ar         1    LIG   0.0000
   7 C7           2.5957     1.4862    -3.9108 C.ar         1    LIG   0.0000
   8 N8           2.5157     1.4753    -2.5126 N.am         1    LIG   0.0000
   9 C9           2.5606     0.2864    -1.8333 C.2          1    LIG   0.0000
  10 O10          2.6684    -0.7455    -2.4362 O.2          1    LIG   0.0000
  11 C11          2.4738     0.2745    -0.3158 C.3          1    LIG   0.0000
  12 C12          1.3334    -0.5570     0.2425 C.3          1    LIG   0.0000
  13 C13          0.0565    -0.0256    -0.3907 C.3          1    LIG   0.0000
  14 C14         -0.0684     1.4707    -0.1608 C.ar         1    LIG   0.0000
  15 C15         -1.3286     2.0528    -0.2672 C.ar         1    LIG   0.0000
  16 C16         -1.4441     3.4271    -0.0917 C.ar         1    LIG   0.0000
  17 C17         -0.3265     4.2076     0.1841 C.ar         1    LIG   0.0000
  18 C18          0.9154     3.5909     0.2878 C.ar         1    LIG   0.0000
  19 C19          1.0755     2.2170     0.1260 C.ar         1    LIG   0.0000
  20 N20          2.3458     1.6337     0.2345 N.am         1    LIG   0.0000
  21 C21          3.4550     2.2536     0.8257 C.2          1    LIG   0.0000
  22 O22          3.3522     3.3587     1.2820 O.2          1    LIG   0.0000
  23 C23          4.7272     1.5595     0.8861 C.ar         1    LIG   0.0000
  24 C24          4.8163     0.3465     1.5625 C.ar         1    LIG   0.0000
  25 C25          6.0320    -0.3261     1.6260 C.ar         1    LIG   0.0000
  26 C26          7.1474     0.2299     1.0086 C.ar         1    LIG   0.0000
  27 N27          8.3724    -0.4412     1.0693 N.pl3        1    LIG   0.0000
  28 C28          8.4394    -1.7217     1.7964 C.3          1    LIG   0.0000
  29 C29          9.7890    -1.9515     2.4626 C.3          1    LIG   0.0000
  30 C30         10.9574    -1.5221     1.5842 C.3          1    LIG   0.0000
  31 C31         10.8335    -0.0696     1.1428 C.3          1    LIG   0.0000
  32 C32         10.9829     0.8808     2.3210 C.2          1    LIG   0.0000
  33 N33         12.0955     0.8146     3.1176 N.am         1    LIG   0.0000
  34 O34         10.1263     1.6886     2.5527 O.2          1    LIG   0.0000
  35 C35          9.5277     0.1823     0.4024 C.3          1    LIG   0.0000
  36 C36          7.0683     1.4418     0.3309 C.ar         1    LIG   0.0000
  37 C37          5.8480     2.1072     0.2712 C.ar         1    LIG   0.0000
  38 H            3.3277    -0.1125     0.0321 H            1    LIG   0.0000
  39 H           11.5821     0.1178     0.5069 H            1    LIG   0.0000
  40 H           -0.0848    -0.3462    -4.6648 H            1    LIG   0.0000
  41 H            0.8868    -0.6366    -3.3848 H            1    LIG   0.0000
  42 H           -0.0266     0.7165    -3.4263 H            1    LIG   0.0000
  43 H            1.0299     0.3484    -6.6002 H            1    LIG   0.0000
  44 H            2.8118     1.5162    -7.6868 H            1    LIG   0.0000
  45 H            4.4557     2.6662    -6.3861 H            1    LIG   0.0000
  46 H            4.3203     2.6456    -3.9990 H            1    LIG   0.0000
  47 H            2.4259     2.3352    -2.0102 H            1    LIG   0.0000
  48 H            1.2911    -0.4609     1.2369 H            1    LIG   0.0000
  49 H            1.4608    -1.5202     0.0058 H            1    LIG   0.0000
  50 H            0.0764    -0.2070    -1.3739 H            1    LIG   0.0000
  51 H           -0.7305    -0.4881     0.0177 H            1    LIG   0.0000
  52 H           -2.1339     1.4941    -0.4658 H            1    LIG   0.0000
  53 H           -2.3425     3.8601    -0.1648 H            1    LIG   0.0000
  54 H           -0.4146     5.1962     0.3058 H            1    LIG   0.0000
  55 H            1.7193     4.1519     0.4849 H            1    LIG   0.0000
  56 H            4.0065    -0.0414     2.0026 H            1    LIG   0.0000
  57 H            6.1033    -1.1985     2.1096 H            1    LIG   0.0000
  58 H            8.2715    -2.4656     1.1496 H            1    LIG   0.0000
  59 H            7.7301    -1.7264     2.5014 H            1    LIG   0.0000
  60 H            9.8833    -2.9258     2.6670 H            1    LIG   0.0000
  61 H            9.8191    -1.4278     3.3139 H            1    LIG   0.0000
  62 H           11.8070    -1.6317     2.1001 H            1    LIG   0.0000
  63 H           10.9829    -2.1055     0.7723 H            1    LIG   0.0000
  64 H           12.8094     0.1415     2.9245 H            1    LIG   0.0000
  65 H           12.1938     1.4394     3.8922 H            1    LIG   0.0000
  66 H            9.3738     1.1690     0.3500 H            1    LIG   0.0000
  67 H            9.6054    -0.1924    -0.5215 H            1    LIG   0.0000
  68 H            7.8786     1.8301    -0.1080 H            1    LIG   0.0000
  69 H            5.7768     2.9789    -0.2136 H            1    LIG   0.0000
@<TRIPOS>BOND
   1        1        2 1
   2        2        3 ar
   3        3        4 ar
   4        4        5 ar
   5        5        6 ar
   6        6        7 ar
   7        7        2 ar
   8        7        8 1
   9        8        9 am
  10        9       10 2
  11        9       11 1
  12       11       12 1
  13       12       13 1
  14       13       14 1
  15       14       15 ar
  16       15       16 ar
  17       16       17 ar
  18       17       18 ar
  19       18       19 ar
  20       19       14 ar
  21       19       20 1
  22       20       11 1
  23       20       21 am
  24       21       22 2
  25       21       23 1
  26       23       24 ar
  27       24       25 ar
  28       25       26 ar
  29       26       27 1
  30       27       28 1
  31       28       29 1
  32       29       30 1
  33       30       31 1
  34       31       32 1
  35       32       33 am
  36       32       34 2
  37       31       35 1
  38       35       27 1
  39       26       36 ar
  40       36       37 ar
  41       37       23 ar
  42       11       38 1
  43       31       39 1
  44        1       40 1
  45        1       41 1
  46        1       42 1
  47        3       43 1
  48        4       44 1
  49        5       45 1
  50        6       46 1
  51        8       47 1
  52       12       48 1
  53       12       49 1
  54       13       50 1
  55       13       51 1
  56       15       52 1
  57       16       53 1
  58       17       54 1
  59       18       55 1
  60       24       56 1
  61       25       57 1
  62       28       58 1
  63       28       59 1
  64       29       60 1
  65       29       61 1
  66       30       62 1
  67       30       63 1
  68       33       64 1
  69       33       65 1
  70       35       66 1
  71       35       67 1
  72       36       68 1
  73       37       69 1

@<TRIPOS>MOLECULE

  69   73
SMALL
USER_CHARGES
@<TRIPOS>ATOM
   1 C1           0.4961     0.2224    -3.9762 C.3          1    LIG   0.0000
   2 C2           1.7216    -0.3478    -4.6720 C.ar         1    LIG   0.0000
   3 C3           1.8013    -0.3363    -6.0606 C.ar         1    LIG   0.0000
   4 C4           2.9229    -0.8587    -6.6974 C.ar         1    LIG   0.0000
   5 C5           3.9646    -1.3916    -5.9452 C.ar         1    LIG   0.0000
   6 C6           3.8848    -1.4031    -4.5565 C.ar         1    LIG   0.0000
   7 C7           2.7637    -0.8807    -3.9197 C.ar         1    LIG   0.0000
   8 N8           2.6837    -0.8917    -2.5216 N.am         1    LIG   0.0000
   9 C9           2.5606     0.2864    -1.8333 C.2          1    LIG   0.0000
  10 O10          2.5213     1.3277    -2.4283 O.2          1    LIG   0.0000
  11 C11          2.4738     0.2745    -0.3158 C.3          1    LIG   0.0000
  12 C12          1.3334    -0.5570     0.2425 C.3          1    LIG   0.0000
  13 C13          0.0565    -0.0256    -0.3907 C.3          1    LIG   0.0000
  14 C14         -0.0684     1.4707    -0.1608 C.ar         1    LIG   0.0000
  15 C15         -1.3286     2.0528    -0.2672 C.ar         1    LIG   0.0000
  16 C16         -1.4441     3.4271    -0.0917 C.ar         1    LIG   0.0000
  17 C17         -0.3265     4.2076     0.1841 C.ar         1    LIG   0.0000
  18 C18          0.9154     3.5909     0.2878 C.ar         1    LIG   0.0000
  19 C19          1.0755     2.2170     0.1260 C.ar         1    LIG   0.0000
  20 N20          2.3458     1.6337     0.2345 N.am         1    LIG   0.0000
  21 C21          3.4550     2.2536     0.8257 C.2          1    LIG   0.0000
  22 O22          3.3522     3.3587     1.2820 O.2          1    LIG   0.0000
  23 C23          4.7272     1.5595     0.8861 C.ar         1    LIG   0.0000
  24 C24          5.3496     1.1624    -0.2937 C.ar         1    LIG   0.0000
  25 C25          6.5693     0.4959    -0.2457 C.ar         1    LIG   0.0000
  26 C26          7.1506     0.2343     0.9905 C.ar         1    LIG   0.0000
  27 N27          8.3765    -0.4358     1.0454 N.pl3        1    LIG   0.0000
  28 C28          9.0111    -0.8492    -0.2192 C.3          1    LIG   0.0000
  29 C29          9.8069    -2.1402    -0.0851 C.3          1    LIG   0.0000
  30 C30         10.6011    -2.2075     1.2134 C.3          1    LIG   0.0000
  31 C31          9.7119    -2.0127     2.4347 C.3          1    LIG   0.0000
  32 C32          8.7532    -3.1803     2.6123 C.2          1    LIG   0.0000
  33 N33          7.9409    -3.2382     3.7139 N.am         1    LIG   0.0000
  34 O34          8.7084    -4.0506     1.7874 O.2          1    LIG   0.0000
  35 C35          8.9568    -0.6926     2.3741 C.3          1    LIG   0.0000
  36 C36          6.5360     0.6265     2.1747 C.ar         1    LIG   0.0000
  37 C37          5.3167     1.2939     2.1174 C.ar         1    LIG   0.0000
  38 H            3.3277    -0.1125     0.0321 H            1    LIG   0.0000
  39 H           10.3055    -1.9844     3.2390 H            1    LIG   0.0000
  40 H           -0.1493     0.5602    -4.6614 H            1    LIG   0.0000
  41 H            0.0592    -0.4931    -3.4310 H            1    LIG   0.0000
  42 H            0.7721     0.9751    -3.3786 H            1    LIG   0.0000
  43 H            1.0527     0.0473    -6.6012 H            1    LIG   0.0000
  44 H            2.9800    -0.8510    -7.6957 H            1    LIG   0.0000
  45 H            4.7709    -1.7663    -6.4028 H            1    LIG   0.0000
  46 H            4.6334    -1.7869    -4.0158 H            1    LIG   0.0000
  47 H            2.7165    -1.7594    -2.0257 H            1    LIG   0.0000
  48 H            1.2911    -0.4609     1.2369 H            1    LIG   0.0000
  49 H            1.4608    -1.5202     0.0058 H            1    LIG   0.0000
  50 H            0.0764    -0.2070    -1.3739 H            1    LIG   0.0000
  51 H           -0.7305    -0.4881     0.0177 H            1    LIG   0.0000
  52 H           -2.1339     1.4941    -0.4658 H            1    LIG   0.0000
  53 H           -2.3425     3.8601    -0.1648 H            1    LIG   0.0000
  54 H           -0.4146     5.1962     0.3058 H            1    LIG   0.0000
  55 H            1.7193     4.1519     0.4849 H            1    LIG   0.0000
  56 H            4.9199     1.3563    -1.1756 H            1    LIG   0.0000
  57 H            7.0227     0.2083    -1.0893 H            1    LIG   0.0000
  58 H            9.6291    -0.1225    -0.5192 H            1    LIG   0.0000
  59 H            8.2969    -0.9840    -0.9061 H            1    LIG   0.0000
  60 H           10.4435    -2.2051    -0.8535 H            1    LIG   0.0000
  61 H            9.1718    -2.9121    -0.1122 H            1    LIG   0.0000
  62 H           11.0439    -3.1019     1.2754 H            1    LIG   0.0000
  63 H           11.2981    -1.4904     1.2035 H            1    LIG   0.0000
  64 H            7.9782    -2.5128     4.4014 H            1    LIG   0.0000
  65 H            7.3106    -4.0057     3.8307 H            1    LIG   0.0000
  66 H            8.2182    -0.7143     3.0479 H            1    LIG   0.0000
  67 H            9.5893     0.0493     2.5967 H            1    LIG   0.0000
  68 H            6.9652     0.4313     3.0566 H            1    LIG   0.0000
  69 H            4.8642     1.5825     2.9612 H            1    LIG   0.0000
@<TRIPOS>BOND
   1        1        2 1
   2        2        3 ar
   3        3        4 ar
   4        4        5 ar
   5        5        6 ar
   6        6        7 ar
   7        7        2 ar
   8        7        8 1
   9        8        9 am
  10        9       10 2
  11        9       11 1
  12       11       12 1
  13       12       13 1
  14       13       14 1
  15       14       15 ar
  16       15       16 ar
  17       16       17 ar
  18       17       18 ar
  19       18       19 ar
  20       19       14 ar
  21       19       20 1
  22       20       11 1
  23       20       21 am
  24       21       22 2
  25       21       23 1
  26       23       24 ar
  27       24       25 ar
  28       25       26 ar
  29       26       27 1
  30       27       28 1
  31       28       29 1
  32       29       30 1
  33       30       31 1
  34       31       32 1
  35       32       33 am
  36       32       34 2
  37       31       35 1
  38       35       27 1
  39       26       36 ar
  40       36       37 ar
  41       37       23 ar
  42       11       38 1
  43       31       39 1
  44        1       40 1
  45        1       41 1
  46        1       42 1
  47        3       43 1
  48        4       44 1
  49        5       45 1
  50        6       46 1
  51        8       47 1
  52       12       48 1
  53       12       49 1
  54       13       50 1
  55       13       51 1
  56       15       52 1
  57       16       53 1
  58       17       54 1
  59       18       55 1
  60       24       56 1
  61       25       57 1
  62       28       58 1
  63       28       59 1
  64       29       60 1
  65       29       61 1
  66       30       62 1
  67       30       63 1
  68       33       64 1
  69       33       65 1
  70       35       66 1
  71       35       67 1
  72       36       68 1
  73       37       69 1

@<TRIPOS>MOLECULE

  69   73
SMALL
USER_CHARGES
@<TRIPOS>ATOM
   1 C1           1.6592    -3.1483    -3.9361 C.3          1    LIG   0.0000
   2 C2           2.2773    -1.9586    -4.6528 C.ar         1    LIG   0.0000
   3 C3           2.3561    -1.9474    -6.0415 C.ar         1    LIG   0.0000
   4 C4           2.9223    -0.8586    -6.6974 C.ar         1    LIG   0.0000
   5 C5           3.4087     0.2189    -5.9644 C.ar         1    LIG   0.0000
   6 C6           3.3299     0.2076    -4.5756 C.ar         1    LIG   0.0000
   7 C7           2.7637    -0.8807    -3.9197 C.ar         1    LIG   0.0000
   8 N8           2.6837    -0.8917    -2.5216 N.am         1    LIG   0.0000
   9 C9           2.5606     0.2864    -1.8333 C.2          1    LIG   0.0000
  10 O10          2.5213     1.3277    -2.4283 O.2          1    LIG   0.0000
  11 C11          2.4738     0.2745    -0.3158 C.3          1    LIG   0.0000
  12 C12          1.3334    -0.5570     0.2425 C.3          1    LIG   0.0000
  13 C13          0.0565    -0.0256    -0.3907 C.3          1    LIG   0.0000
  14 C14         -0.0684     1.4707    -0.1608 C.ar         1    LIG   0.0000
  15 C15         -1.3286     2.0528    -0.2672 C.ar         1    LIG   0.0000
  16 C16         -1.4441     3.4271    -0.0917 C.ar         1    LIG   0.0000
  17 C17         -0.3265     4.2076     0.1841 C.ar         1    LIG   0.0000
  18 C18          0.9154     3.5909     0.2878 C.ar         1    LIG   0.0000
  19 C19          1.0755     2.2170     0.1260 C.ar         1    LIG   0.0000
  20 N20          2.3458     1.6337     0.2345 N.am         1    LIG   0.0000
  21 C21          3.4550     2.2536     0.8257 C.2          1    LIG   0.0000
  22 O22          3.3522     3.3587     1.2820 O.2          1    LIG   0.0000
  23 C23          4.7272     1.5595     0.8861 C.ar         1    LIG   0.0000
  24 C24          5.3496     1.1624    -0.2937 C.ar         1    LIG   0.0000
  25 C25          6.5693     0.4959    -0.2457 C.ar         1    LIG   0.0000
  26 C26          7.1506     0.2343     0.9905 C.ar         1    LIG   0.0000
  27 N27          8.3827    -0.4392     1.0456 N.pl3        1    LIG   0.0000
  28 C28          9.0477    -0.7443     2.3213 C.3          1    LIG   0.0000
  29 C29         10.5576    -0.7162     2.1162 C.3          1    LIG   0.0000
  30 C30         11.0134    -1.7394     1.0891 C.3          1    LIG   0.0000
  31 C31          9.8851    -2.1216     0.1419 C.3          1    LIG   0.0000
  32 C32         10.5042    -2.7091    -1.1161 C.2          1    LIG   0.0000
  33 N33         11.3741    -1.9612    -1.8649 N.am         1    LIG   0.0000
  34 O34         10.2310    -3.8279    -1.4531 O.2          1    LIG   0.0000
  35 C35          9.0748    -0.8755    -0.1750 C.3          1    LIG   0.0000
  36 C36          6.5360     0.6265     2.1747 C.ar         1    LIG   0.0000
  37 C37          5.3167     1.2939     2.1174 C.ar         1    LIG   0.0000
  38 H            3.3277    -0.1125     0.0321 H            1    LIG   0.0000
  39 H            9.2971    -2.8034     0.5771 H            1    LIG   0.0000
  40 H            1.3644    -3.8266    -4.6092 H            1    LIG   0.0000
  41 H            2.3364    -3.5578    -3.3248 H            1    LIG   0.0000
  42 H            0.8702    -2.8431    -3.4029 H            1    LIG   0.0000
  43 H            2.0059    -2.7218    -6.5684 H            1    LIG   0.0000
  44 H            2.9796    -0.8508    -7.6957 H            1    LIG   0.0000
  45 H            3.8150     1.0016    -6.4358 H            1    LIG   0.0000
  46 H            3.6803     0.9819    -4.0486 H            1    LIG   0.0000
  47 H            2.7165    -1.7594    -2.0257 H            1    LIG   0.0000
  48 H            1.2911    -0.4609     1.2369 H            1    LIG   0.0000
  49 H            1.4608    -1.5202     0.0058 H            1    LIG   0.0000
  50 H            0.0764    -0.2070    -1.3739 H            1    LIG   0.0000
  51 H           -0.7305    -0.4881     0.0177 H            1    LIG   0.0000
  52 H           -2.1339     1.4941    -0.4658 H            1    LIG   0.0000
  53 H           -2.3425     3.8601    -0.1648 H            1    LIG   0.0000
  54 H           -0.4146     5.1962     0.3058 H            1    LIG   0.0000
  55 H            1.7193     4.1519     0.4849 H            1    LIG   0.0000
  56 H            4.9199     1.3563    -1.1756 H            1    LIG   0.0000
  57 H            7.0227     0.2083    -1.0893 H            1    LIG   0.0000
  58 H            8.7693    -1.6520     2.6353 H            1    LIG   0.0000
  59 H            8.7899    -0.0616     3.0049 H            1    LIG   0.0000
  60 H           11.0054    -0.9132     2.9884 H            1    LIG   0.0000
  61 H           10.8238     0.1955     1.8034 H            1    LIG   0.0000
  62 H           11.7667    -1.3524     0.5574 H            1    LIG   0.0000
  63 H           11.3290    -2.5598     1.5659 H            1    LIG   0.0000
  64 H           11.6018    -1.0289    -1.5840 H            1    LIG   0.0000
  65 H           11.7814    -2.3476    -2.6925 H            1    LIG   0.0000
  66 H            9.6846    -0.1498    -0.4936 H            1    LIG   0.0000
  67 H            8.4034    -1.0829    -0.8865 H            1    LIG   0.0000
  68 H            6.9652     0.4313     3.0566 H            1    LIG   0.0000
  69 H            4.8642     1.5825     2.9612 H            1    LIG   0.0000
@<TRIPOS>BOND
   1        1        2 1
   2        2        3 ar
   3        3        4 ar
   4        4        5 ar
   5        5        6 ar
   6        6        7 ar
   7        7        2 ar
   8        7        8 1
   9        8        9 am
  10        9       10 2
  11        9       11 1
  12       11       12 1
  13       12       13 1
  14       13       14 1
  15       14       15 ar
  16       15       16 ar
  17       16       17 ar
  18       17       18 ar
  19       18       19 ar
  20       19       14 ar
  21       19       20 1
  22       20       11 1
  23       20       21 am
  24       21       22 2
  25       21       23 1
  26       23       24 ar
  27       24       25 ar
  28       25       26 ar
  29       26       27 1
  30       27       28 1
  31       28       29 1
  32       29       30 1
  33       30       31 1
  34       31       32 1
  35       32       33 am
  36       32       34 2
  37       31       35 1
  38       35       27 1
  39       26       36 ar
  40       36       37 ar
  41       37       23 ar
  42       11       38 1
  43       31       39 1
  44        1       40 1
  45        1       41 1
  46        1       42 1
  47        3       43 1
  48        4       44 1
  49        5       45 1
  50        6       46 1
  51        8       47 1
  52       12       48 1
  53       12       49 1
  54       13       50 1
  55       13       51 1
  56       15       52 1
  57       16       53 1
  58       17       54 1
  59       18       55 1
  60       24       56 1
  61       25       57 1
  62       28       58 1
  63       28       59 1
  64       29       60 1
  65       29       61 1
  66       30       62 1
  67       30       63 1
  68       33       64 1
  69       33       65 1
  70       35       66 1
  71       35       67 1
  72       36       68 1
  73       37       69 1

@<TRIPOS>MOLECULE

  69   73
SMALL
USER_CHARGES
@<TRIPOS>ATOM
   1 C1           4.1702    -2.9705    -3.7911 C.3          1    LIG   0.0000
   2 C2           3.4773    -1.8737    -4.5835 C.ar         1    LIG   0.0000
   3 C3           3.5561    -1.8632    -5.9722 C.ar         1    LIG   0.0000
   4 C4           2.9222    -0.8590    -6.6974 C.ar         1    LIG   0.0000
   5 C5           2.2089     0.1338    -6.0337 C.ar         1    LIG   0.0000
   6 C6           2.1302     0.1233    -4.6449 C.ar         1    LIG   0.0000
   7 C7           2.7637    -0.8807    -3.9197 C.ar         1    LIG   0.0000
   8 N8           2.6837    -0.8917    -2.5216 N.am         1    LIG   0.0000
   9 C9           2.5606     0.2864    -1.8333 C.2          1    LIG   0.0000
  10 O10          2.5213     1.3277    -2.4283 O.2          1    LIG   0.0000
  11 C11          2.4738     0.2745    -0.3158 C.3          1    LIG   0.0000
  12 C12          1.3334    -0.5570     0.2425 C.3          1    LIG   0.0000
  13 C13          0.0565    -0.0256    -0.3907 C.3          1    LIG   0.0000
  14 C14         -0.0684     1.4707    -0.1608 C.ar         1    LIG   0.0000
  15 C15         -1.3286     2.0528    -0.2672 C.ar         1    LIG   0.0000
  16 C16         -1.4441     3.4271    -0.0917 C.ar         1    LIG   0.0000
  17 C17         -0.3265     4.2076     0.1841 C.ar         1    LIG   0.0000
  18 C18          0.9154     3.5909     0.2878 C.ar         1    LIG   0.0000
  19 C19          1.0755     2.2170     0.1260 C.ar         1    LIG   0.0000
  20 N20          2.3458     1.6337     0.2345 N.am         1    LIG   0.0000
  21 C21          3.4550     2.2536     0.8257 C.2          1    LIG   0.0000
  22 O22          3.3522     3.3587     1.2820 O.2          1    LIG   0.0000
  23 C23          4.7272     1.5595     0.8861 C.ar         1    LIG   0.0000
  24 C24          5.9107     2.2914     0.8642 C.ar         1    LIG   0.0000
  25 C25          7.1352     1.6345     0.9212 C.ar         1    LIG   0.0000
  26 C26          7.1566     0.2460     0.9985 C.ar         1    LIG   0.0000
  27 N27          8.3894    -0.4229     1.0559 N.pl3        1    LIG   0.0000
  28 C28          8.4812    -1.8860     1.1252 C.3          1    LIG   0.0000
  29 C29          9.7760    -2.3680     0.4847 C.3          1    LIG   0.0000
  30 C30         11.0337    -1.7199     1.0563 C.3          1    LIG   0.0000
  31 C31         10.7540    -0.4172     1.8047 C.3          1    LIG   0.0000
  32 C32         10.3734    -0.6623     3.2572 C.2          1    LIG   0.0000
  33 N33         10.0996     0.3969     4.0817 N.am         1    LIG   0.0000
  34 O34         10.3131    -1.7835     3.6806 O.2          1    LIG   0.0000
  35 C35          9.6623     0.3131     1.0361 C.3          1    LIG   0.0000
  36 C36          5.9793    -0.4940     1.0203 C.ar         1    LIG   0.0000
  37 C37          4.7588     0.1713     0.9642 C.ar         1    LIG   0.0000
  38 H            3.3277    -0.1125     0.0321 H            1    LIG   0.0000
  39 H           11.5825     0.1425     1.7853 H            1    LIG   0.0000
  40 H            4.6324    -3.5953    -4.4204 H            1    LIG   0.0000
  41 H            4.8423    -2.5618    -3.1736 H            1    LIG   0.0000
  42 H            3.4918    -3.4759    -3.2579 H            1    LIG   0.0000
  43 H            4.0684    -2.5773    -6.4493 H            1    LIG   0.0000
  44 H            2.9794    -0.8511    -7.6957 H            1    LIG   0.0000
  45 H            1.7528     0.8551    -6.5549 H            1    LIG   0.0000
  46 H            1.6181     0.8375    -4.1677 H            1    LIG   0.0000
  47 H            2.7165    -1.7594    -2.0257 H            1    LIG   0.0000
  48 H            1.2911    -0.4609     1.2369 H            1    LIG   0.0000
  49 H            1.4608    -1.5202     0.0058 H            1    LIG   0.0000
  50 H            0.0764    -0.2070    -1.3739 H            1    LIG   0.0000
  51 H           -0.7305    -0.4881     0.0177 H            1    LIG   0.0000
  52 H           -2.1339     1.4941    -0.4658 H            1    LIG   0.0000
  53 H           -2.3425     3.8601    -0.1648 H            1    LIG   0.0000
  54 H           -0.4146     5.1962     0.3058 H            1    LIG   0.0000
  55 H            1.7193     4.1519     0.4849 H            1    LIG   0.0000
  56 H            5.8806     3.2893     0.8076 H            1    LIG   0.0000
  57 H            7.9896     2.1540     0.9068 H            1    LIG   0.0000
  58 H            7.7043    -2.2882     0.6406 H            1    LIG   0.0000
  59 H            8.4610    -2.1724     2.0831 H            1    LIG   0.0000
  60 H            9.7360    -2.1665    -0.4940 H            1    LIG   0.0000
  61 H            9.8435    -3.3567     0.6190 H            1    LIG   0.0000
  62 H           11.4633    -2.3640     1.6893 H            1    LIG   0.0000
  63 H           11.6612    -1.5248     0.3025 H            1    LIG   0.0000
  64 H           10.1499     1.3313     3.7288 H            1    LIG   0.0000
  65 H            9.8494     0.2358     5.0364 H            1    LIG   0.0000
  66 H            9.5220     1.2124     1.4504 H            1    LIG   0.0000
  67 H            9.9556     0.4257     0.0868 H            1    LIG   0.0000
  68 H            6.0098    -1.4920     1.0756 H            1    LIG   0.0000
  69 H            3.9046    -0.3484     0.9800 H            1    LIG   0.0000
@<TRIPOS>BOND
   1        1        2 1
   2        2        3 ar
   3        3        4 ar
   4        4        5 ar
   5        5        6 ar
   6        6        7 ar
   7        7        2 ar
   8        7        8 1
   9        8        9 am
  10        9       10 2
  11        9       11 1
  12       11       12 1
  13       12       13 1
  14       13       14 1
  15       14       15 ar
  16       15       16 ar
  17       16       17 ar
  18       17       18 ar
  19       18       19 ar
  20       19       14 ar
  21       19       20 1
  22       20       11 1
  23       20       21 am
  24       21       22 2
  25       21       23 1
  26       23       24 ar
  27       24       25 ar
  28       25       26 ar
  29       26       27 1
  30       27       28 1
  31       28       29 1
  32       29       30 1
  33       30       31 1
  34       31       32 1
  35       32       33 am
  36       32       34 2
  37       31       35 1
  38       35       27 1
  39       26       36 ar
  40       36       37 ar
  41       37       23 ar
  42       11       38 1
  43       31       39 1
  44        1       40 1
  45        1       41 1
  46        1       42 1
  47        3       43 1
  48        4       44 1
  49        5       45 1
  50        6       46 1
  51        8       47 1
  52       12       48 1
  53       12       49 1
  54       13       50 1
  55       13       51 1
  56       15       52 1
  57       16       53 1
  58       17       54 1
  59       18       55 1
  60       24       56 1
  61       25       57 1
  62       28       58 1
  63       28       59 1
  64       29       60 1
  65       29       61 1
  66       30       62 1
  67       30       63 1
  68       33       64 1
  69       33       65 1
  70       35       66 1
  71       35       67 1
  72       36       68 1
  73       37       69 1

@<TRIPOS>MOLECULE

  69   73
SMALL
USER_CHARGES
@<TRIPOS>ATOM
   1 C1           4.8560     0.3821    -3.7256 C.3          1    LIG   0.0000
   2 C2           3.7173     0.9642    -4.5476 C.ar         1    LIG   0.0000
   3 C3           3.7964     0.9745    -5.9362 C.ar         1    LIG   0.0000
   4 C4           2.7543     1.5078    -6.6884 C.ar         1    LIG   0.0000
   5 C5           1.6331     2.0297    -6.0518 C.ar         1    LIG   0.0000
   6 C6           1.5541     2.0195    -4.6630 C.ar         1    LIG   0.0000
   7 C7           2.5957     1.4862    -3.9108 C.ar         1    LIG   0.0000
   8 N8           2.5157     1.4753    -2.5126 N.am         1    LIG   0.0000
   9 C9           2.5606     0.2864    -1.8333 C.2          1    LIG   0.0000
  10 O10          2.6684    -0.7455    -2.4362 O.2          1    LIG   0.0000
  11 C11          2.4738     0.2745    -0.3158 C.3          1    LIG   0.0000
  12 C12          1.3334    -0.5570     0.2425 C.3          1    LIG   0.0000
  13 C13          0.0565    -0.0256    -0.3907 C.3          1    LIG   0.0000
  14 C14         -0.0684     1.4707    -0.1608 C.ar         1    LIG   0.0000
  15 C15         -1.3286     2.0528    -0.2672 C.ar         1    LIG   0.0000
  16 C16         -1.4441     3.4271    -0.0917 C.ar         1    LIG   0.0000
  17 C17         -0.3265     4.2076     0.1841 C.ar         1    LIG   0.0000
  18 C18          0.9154     3.5909     0.2878 C.ar         1    LIG   0.0000
  19 C19          1.0755     2.2170     0.1260 C.ar         1    LIG   0.0000
  20 N20          2.3458     1.6337     0.2345 N.am         1    LIG   0.0000
  21 C21          3.4550     2.2536     0.8257 C.2          1    LIG   0.0000
  22 O22          3.3522     3.3587     1.2820 O.2          1    LIG   0.0000
  23 C23          4.7272     1.5595     0.8861 C.ar         1    LIG   0.0000
  24 C24          5.6028     1.8203     1.9359 C.ar         1    LIG   0.0000
  25 C25          6.8250     1.1599     2.0019 C.ar         1    LIG   0.0000
  26 C26          7.1547     0.2435     1.0090 C.ar         1    LIG   0.0000
  27 N27          8.3828    -0.4237     1.0696 N.pl3        1    LIG   0.0000
  28 C28          9.2863    -0.1303     2.1946 C.3          1    LIG   0.0000
  29 C29         10.1055    -1.3459     2.6066 C.3          1    LIG   0.0000
  30 C30         10.7030    -2.0787     1.4126 C.3          1    LIG   0.0000
  31 C31          9.5570    -2.5460     0.5245 C.3          1    LIG   0.0000
  32 C32         10.0836    -3.3537    -0.6504 C.2          1    LIG   0.0000
  33 N33          9.2080    -3.9473    -1.5210 N.am         1    LIG   0.0000
  34 O34         11.2664    -3.4716    -0.8155 O.2          1    LIG   0.0000
  35 C35          8.7120    -1.3898     0.0083 C.3          1    LIG   0.0000
  36 C36          6.2867    -0.0234    -0.0442 C.ar         1    LIG   0.0000
  37 C37          5.0656     0.6408    -0.1017 C.ar         1    LIG   0.0000
  38 H            3.3277    -0.1125     0.0321 H            1    LIG   0.0000
  39 H            8.9666    -3.1414     1.0693 H            1    LIG   0.0000
  40 H            5.5755     0.0545    -4.3379 H            1    LIG   0.0000
  41 H            5.2272     1.0886    -3.1230 H            1    LIG   0.0000
  42 H            4.5143    -0.3796    -3.1751 H            1    LIG   0.0000
  43 H            4.6022     0.5987    -6.3939 H            1    LIG   0.0000
  44 H            2.8114     1.5157    -7.6868 H            1    LIG   0.0000
  45 H            0.8839     2.4123    -6.5924 H            1    LIG   0.0000
  46 H            0.7484     2.3955    -4.2053 H            1    LIG   0.0000
  47 H            2.4259     2.3352    -2.0102 H            1    LIG   0.0000
  48 H            1.2911    -0.4609     1.2369 H            1    LIG   0.0000
  49 H            1.4608    -1.5202     0.0058 H            1    LIG   0.0000
  50 H            0.0764    -0.2070    -1.3739 H            1    LIG   0.0000
  51 H           -0.7305    -0.4881     0.0177 H            1    LIG   0.0000
  52 H           -2.1339     1.4941    -0.4658 H            1    LIG   0.0000
  53 H           -2.3425     3.8601    -0.1648 H            1    LIG   0.0000
  54 H           -0.4146     5.1962     0.3058 H            1    LIG   0.0000
  55 H            1.7193     4.1519     0.4849 H            1    LIG   0.0000
  56 H            5.3532     2.4824     2.6426 H            1    LIG   0.0000
  57 H            7.4588     1.3417     2.7537 H            1    LIG   0.0000
  58 H            8.7400     0.1699     2.9765 H            1    LIG   0.0000
  59 H            9.9109     0.6021     1.9235 H            1    LIG   0.0000
  60 H            9.5130    -1.9773     3.1067 H            1    LIG   0.0000
  61 H           10.8496    -1.0441     3.2026 H            1    LIG   0.0000
  62 H           11.2997    -1.4616     0.8997 H            1    LIG   0.0000
  63 H           11.2309    -2.8672     1.7280 H            1    LIG   0.0000
  64 H            8.2224    -3.8491    -1.3834 H            1    LIG   0.0000
  65 H            9.5544    -4.4787    -2.2940 H            1    LIG   0.0000
  66 H            9.2194    -0.9166    -0.7119 H            1    LIG   0.0000
  67 H            7.8613    -1.7561    -0.3689 H            1    LIG   0.0000
  68 H            6.5371    -0.6845    -0.7515 H            1    LIG   0.0000
  69 H            4.4315     0.4578    -0.8530 H            1    LIG   0.0000
@<TRIPOS>BOND
   1        1        2 1
   2        2        3 ar
   3        3        4 ar
   4        4        5 ar
   5        5        6 ar
   6        6        7 ar
   7        7        2 ar
   8        7        8 1
   9        8        9 am
  10        9       10 2
  11        9       11 1
  12       11       12 1
  13       12       13 1
  14       13       14 1
  15       14       15 ar
  16       15       16 ar
  17       16       17 ar
  18       17       18 ar
  19       18       19 ar
  20       19       14 ar
  21       19       20 1
  22       20       11 1
  23       20       21 am
  24       21       22 2
  25       21       23 1
  26       23       24 ar
  27       24       25 ar
  28       25       26 ar
  29       26       27 1
  30       27       28 1
  31       28       29 1
  32       29       30 1
  33       30       31 1
  34       31       32 1
  35       32       33 am
  36       32       34 2
  37       31       35 1
  38       35       27 1
  39       26       36 ar
  40       36       37 ar
  41       37       23 ar
  42       11       38 1
  43       31       39 1
  44        1       40 1
  45        1       41 1
  46        1       42 1
  47        3       43 1
  48        4       44 1
  49        5       45 1
  50        6       46 1
  51        8       47 1
  52       12       48 1
  53       12       49 1
  54       13       50 1
  55       13       51 1
  56       15       52 1
  57       16       53 1
  58       17       54 1
  59       18       55 1
  60       24       56 1
  61       25       57 1
  62       28       58 1
  63       28       59 1
  64       29       60 1
  65       29       61 1
  66       30       62 1
  67       30       63 1
  68       33       64 1
  69       33       65 1
  70       35       66 1
  71       35       67 1
  72       36       68 1
  73       37       69 1

