@<TRIPOS>MOLECULE
*****
 69 73 0 0 0
SMALL
USER_CHARGES

@<TRIPOS>ATOM
      1 C1          0.5067    0.0742   -3.9768 C.3     1  LIG1        0.0000
      2 C2          1.6389    0.8172   -4.6676 C.3     1  LIG1        0.0000
      3 C3          1.7179    0.8287   -6.0562 C.3     1  LIG1        0.0000
      4 C4          2.7545    1.5084   -6.6884 C.3     1  LIG1        0.0000
      5 C5          3.7111    2.1771   -5.9318 C.3     1  LIG1        0.0000
      6 C6          3.6321    2.1655   -4.5430 C.3     1  LIG1        0.0000
      7 C7          2.5957    1.4862   -3.9108 C.3     1  LIG1        0.0000
      8 N8          2.5157    1.4753   -2.5126 N.am    1  LIG1        0.0000
      9 C9          2.5606    0.2864   -1.8333 C.2     1  LIG1        0.0000
     10 O10         2.6684   -0.7455   -2.4362 O.2     1  LIG1        0.0000
     11 C11         2.4738    0.2745   -0.3158 C.3     1  LIG1        0.0000
     12 C12         1.3334   -0.5570    0.2425 C.3     1  LIG1        0.0000
     13 C13         0.0565   -0.0256   -0.3907 C.3     1  LIG1        0.0000
     14 C14        -0.0684    1.4707   -0.1608 C.3     1  LIG1        0.0000
     15 C15        -1.3286    2.0528   -0.2672 C.3     1  LIG1        0.0000
     16 C16        -1.4441    3.4271   -0.0917 C.3     1  LIG1        0.0000
     17 C17        -0.3265    4.2076    0.1841 C.3     1  LIG1        0.0000
     18 C18         0.9154    3.5909    0.2878 C.3     1  LIG1        0.0000
     19 C19         1.0755    2.2170    0.1260 C.3     1  LIG1        0.0000
     20 N20         2.3458    1.6337    0.2345 N.am    1  LIG1        0.0000
     21 C21         3.4550    2.2536    0.8257 C.2     1  LIG1        0.0000
     22 O22         3.3522    3.3587    1.2820 O.2     1  LIG1        0.0000
     23 C23         4.7272    1.5595    0.8861 C.3     1  LIG1        0.0000
     24 C24         4.8163    0.3465    1.5625 C.3     1  LIG1        0.0000
     25 C25         6.0320   -0.3261    1.6260 C.3     1  LIG1        0.0000
     26 C26         7.1474    0.2299    1.0086 C.3     1  LIG1        0.0000
     27 N27         8.3724   -0.4412    1.0693 N.pl3   1  LIG1        0.0000
     28 C28         8.4394   -1.7217    1.7964 C.3     1  LIG1        0.0000
     29 C29         9.7890   -1.9515    2.4626 C.3     1  LIG1        0.0000
     30 C30        10.9574   -1.5221    1.5842 C.3     1  LIG1        0.0000
     31 C31        10.8335   -0.0696    1.1428 C.3     1  LIG1        0.0000
     32 C32        10.9829    0.8808    2.3210 C.2     1  LIG1        0.0000
     33 N33        12.0955    0.8146    3.1176 N.am    1  LIG1        0.0000
     34 O34        10.1263    1.6886    2.5527 O.2     1  LIG1        0.0000
     35 C35         9.5277    0.1823    0.4024 C.3     1  LIG1        0.0000
     36 C36         7.0683    1.4418    0.3309 C.3     1  LIG1        0.0000
     37 C37         5.8480    2.1072    0.2712 C.3     1  LIG1        0.0000
     38 H           3.3277   -0.1125    0.0321 H       1  LIG1        0.0000
     39 H          11.5821    0.1178    0.5069 H       1  LIG1        0.0000
     40 H          -0.0848   -0.3462   -4.6648 H       1  LIG1        0.0000
     41 H           0.8868   -0.6366   -3.3848 H       1  LIG1        0.0000
     42 H          -0.0266    0.7165   -3.4263 H       1  LIG1        0.0000
     43 H           1.0299    0.3484   -6.6002 H       1  LIG1        0.0000
     44 H           2.8118    1.5162   -7.6868 H       1  LIG1        0.0000
     45 H           4.4557    2.6662   -6.3861 H       1  LIG1        0.0000
     46 H           4.3203    2.6456   -3.9990 H       1  LIG1        0.0000
     47 H           2.4259    2.3352   -2.0102 H       1  LIG1        0.0000
     48 H           1.2911   -0.4609    1.2369 H       1  LIG1        0.0000
     49 H           1.4608   -1.5202    0.0058 H       1  LIG1        0.0000
     50 H           0.0764   -0.2070   -1.3739 H       1  LIG1        0.0000
     51 H          -0.7305   -0.4881    0.0177 H       1  LIG1        0.0000
     52 H          -2.1339    1.4941   -0.4658 H       1  LIG1        0.0000
     53 H          -2.3425    3.8601   -0.1648 H       1  LIG1        0.0000
     54 H          -0.4146    5.1962    0.3058 H       1  LIG1        0.0000
     55 H           1.7193    4.1519    0.4849 H       1  LIG1        0.0000
     56 H           4.0065   -0.0414    2.0026 H       1  LIG1        0.0000
     57 H           6.1033   -1.1985    2.1096 H       1  LIG1        0.0000
     58 H           8.2715   -2.4656    1.1496 H       1  LIG1        0.0000
     59 H           7.7301   -1.7264    2.5014 H       1  LIG1        0.0000
     60 H           9.8833   -2.9258    2.6670 H       1  LIG1        0.0000
     61 H           9.8191   -1.4278    3.3139 H       1  LIG1        0.0000
     62 H          11.8070   -1.6317    2.1001 H       1  LIG1        0.0000
     63 H          10.9829   -2.1055    0.7723 H       1  LIG1        0.0000
     64 H          12.8094    0.1415    2.9245 H       1  LIG1        0.0000
     65 H          12.1938    1.4394    3.8922 H       1  LIG1        0.0000
     66 H           9.3738    1.1690    0.3500 H       1  LIG1        0.0000
     67 H           9.6054   -0.1924   -0.5215 H       1  LIG1        0.0000
     68 H           7.8786    1.8301   -0.1080 H       1  LIG1        0.0000
     69 H           5.7768    2.9789   -0.2136 H       1  LIG1        0.0000
@<TRIPOS>BOND
     1     1     2    1
     2     2     3   ar
     3     3     4   ar
     4     4     5   ar
     5     5     6   ar
     6     6     7   ar
     7     7     2   ar
     8     7     8    1
     9     8     9   am
    10     9    10    2
    11     9    11    1
    12    11    12    1
    13    12    13    1
    14    13    14    1
    15    14    15   ar
    16    15    16   ar
    17    16    17   ar
    18    17    18   ar
    19    18    19   ar
    20    19    14   ar
    21    19    20    1
    22    20    11    1
    23    20    21   am
    24    21    22    2
    25    21    23    1
    26    23    24   ar
    27    24    25   ar
    28    25    26   ar
    29    26    27    1
    30    27    28    1
    31    28    29    1
    32    29    30    1
    33    30    31    1
    34    31    32    1
    35    32    33   am
    36    32    34    2
    37    31    35    1
    38    35    27    1
    39    26    36   ar
    40    36    37   ar
    41    37    23   ar
    42    11    38    1
    43    31    39    1
    44     1    40    1
    45     1    41    1
    46     1    42    1
    47     3    43    1
    48     4    44    1
    49     5    45    1
    50     6    46    1
    51     8    47    1
    52    12    48    1
    53    12    49    1
    54    13    50    1
    55    13    51    1
    56    15    52    1
    57    16    53    1
    58    17    54    1
    59    18    55    1
    60    24    56    1
    61    25    57    1
    62    28    58    1
    63    28    59    1
    64    29    60    1
    65    29    61    1
    66    30    62    1
    67    30    63    1
    68    33    64    1
    69    33    65    1
    70    35    66    1
    71    35    67    1
    72    36    68    1
    73    37    69    1
