@<TRIPOS>MOLECULE
*****
 69 73 0 0 0
SMALL
USER_CHARGES

@<TRIPOS>ATOM
      1 C1          4.4027    4.8772   -1.4251 C.3     1  LIG1        0.0000
      2 C2          3.4246    4.7562   -2.5827 C.3     1  LIG1        0.0000
      3 C3          3.5467    5.5932   -3.6868 C.3     1  LIG1        0.0000
      4 C4          2.6512    5.4827   -4.7460 C.3     1  LIG1        0.0000
      5 C5          1.6344    4.5346   -4.7011 C.3     1  LIG1        0.0000
      6 C6          1.5122    3.6975   -3.5967 C.3     1  LIG1        0.0000
      7 C7          2.4076    3.8077   -2.5378 C.3     1  LIG1        0.0000
      8 N8          2.2850    2.9645   -1.4264 N.am    1  LIG1        0.0000
      9 C9          1.0525    2.4958   -1.0547 C.2     1  LIG1        0.0000
     10 O10         0.0779    2.8079   -1.6815 O.2     1  LIG1        0.0000
     11 C11         0.9195    1.5805    0.1517 C.3     1  LIG1        0.0000
     12 C12         1.8121    0.3740   -0.1204 C.3     1  LIG1        0.0000
     13 C13         1.2045   -0.9363    0.3618 C.3     1  LIG1        0.0000
     14 C14        -0.1686   -1.0654   -0.2769 C.3     1  LIG1        0.0000
     15 C15        -0.6132   -2.2502   -0.8550 C.3     1  LIG1        0.0000
     16 C16        -1.8688   -2.3188   -1.4509 C.3     1  LIG1        0.0000
     17 C17        -2.6963   -1.2010   -1.4705 C.3     1  LIG1        0.0000
     18 C18        -2.2380   -0.0270   -0.8806 C.3     1  LIG1        0.0000
     19 C19        -0.9835    0.0593   -0.2789 C.3     1  LIG1        0.0000
     20 N20        -0.5005    1.2321    0.3217 N.am    1  LIG1        0.0000
     21 C21        -1.3209    2.0830    1.0722 C.2     1  LIG1        0.0000
     22 O22        -0.8626    3.0755    1.5671 O.2     1  LIG1        0.0000
     23 C23        -2.7247    1.7648    1.2516 C.3     1  LIG1        0.0000
     24 C24        -3.0847    0.5725    1.8726 C.3     1  LIG1        0.0000
     25 C25        -4.4282    0.2587    2.0486 C.3     1  LIG1        0.0000
     26 C26        -5.3969    1.1483    1.5963 C.3     1  LIG1        0.0000
     27 N27        -6.7499    0.8382    1.7700 N.pl3   1  LIG1        0.0000
     28 C28        -7.1001   -0.4283    2.4345 C.3     1  LIG1        0.0000
     29 C29        -8.3829   -0.3161    3.2470 C.3     1  LIG1        0.0000
     30 C30        -9.4940    0.3968    2.4876 C.3     1  LIG1        0.0000
     31 C31        -9.0096    1.8013    2.1518 C.3     1  LIG1        0.0000
     32 C32       -10.1044    2.5949    1.4574 C.2     1  LIG1        0.0000
     33 N33       -11.3292    2.7394    2.0541 N.am    1  LIG1        0.0000
     34 O34        -9.8959    3.0948    0.3866 O.2     1  LIG1        0.0000
     35 C35        -7.7591    1.7938    1.2838 C.3     1  LIG1        0.0000
     36 C36        -5.0469    2.3418    0.9741 C.3     1  LIG1        0.0000
     37 C37        -3.7007    2.6483    0.8033 C.3     1  LIG1        0.0000
     38 H           1.2448    2.0573    0.9683 H       1  LIG1        0.0000
     39 H          -8.7880    2.2653    3.0095 H       1  LIG1        0.0000
     40 H           5.0627    5.6025   -1.6208 H       1  LIG1        0.0000
     41 H           3.9026    5.0986   -0.5879 H       1  LIG1        0.0000
     42 H           4.8861    4.0100   -1.3052 H       1  LIG1        0.0000
     43 H           4.2781    6.2744   -3.7194 H       1  LIG1        0.0000
     44 H           2.7386    6.0849   -5.5396 H       1  LIG1        0.0000
     45 H           0.9912    4.4547   -5.4626 H       1  LIG1        0.0000
     46 H           0.7807    3.0165   -3.5641 H       1  LIG1        0.0000
     47 H           3.0972    2.7044   -0.9041 H       1  LIG1        0.0000
     48 H           2.6852    0.5116    0.3473 H       1  LIG1        0.0000
     49 H           1.9685    0.3091   -1.1060 H       1  LIG1        0.0000
     50 H           1.7833   -1.7033    0.0849 H       1  LIG1        0.0000
     51 H           1.1181   -0.9264    1.3580 H       1  LIG1        0.0000
     52 H          -0.0255   -3.0592   -0.8421 H       1  LIG1        0.0000
     53 H          -2.1773   -3.1746   -1.8663 H       1  LIG1        0.0000
     54 H          -3.5992   -1.2401   -1.8984 H       1  LIG1        0.0000
     55 H          -2.8275    0.7807   -0.8886 H       1  LIG1        0.0000
     56 H          -2.3777   -0.0583    2.1922 H       1  LIG1        0.0000
     57 H          -4.6943   -0.5958    2.4947 H       1  LIG1        0.0000
     58 H          -6.3530   -0.6882    3.0464 H       1  LIG1        0.0000
     59 H          -7.2211   -1.1350    1.7374 H       1  LIG1        0.0000
     60 H          -8.1883    0.1943    4.0846 H       1  LIG1        0.0000
     61 H          -8.6949   -1.2366    3.4825 H       1  LIG1        0.0000
     62 H          -9.7025   -0.1005    1.6455 H       1  LIG1        0.0000
     63 H         -10.3149    0.4480    3.0564 H       1  LIG1        0.0000
     64 H         -11.5029    2.3228    2.9464 H       1  LIG1        0.0000
     65 H         -12.0494    3.2614    1.5973 H       1  LIG1        0.0000
     66 H          -8.0164    1.5433    0.3506 H       1  LIG1        0.0000
     67 H          -7.3608    2.7111    1.2850 H       1  LIG1        0.0000
     68 H          -5.7542    2.9718    0.6534 H       1  LIG1        0.0000
     69 H          -3.4349    3.5036    0.3584 H       1  LIG1        0.0000
@<TRIPOS>BOND
     1     1     2    1
     2     2     3   ar
     3     3     4   ar
     4     4     5   ar
     5     5     6   ar
     6     6     7   ar
     7     7     2   ar
     8     7     8    1
     9     8     9   am
    10     9    10    2
    11     9    11    1
    12    11    12    1
    13    12    13    1
    14    13    14    1
    15    14    15   ar
    16    15    16   ar
    17    16    17   ar
    18    17    18   ar
    19    18    19   ar
    20    19    14   ar
    21    19    20    1
    22    20    11    1
    23    20    21   am
    24    21    22    2
    25    21    23    1
    26    23    24   ar
    27    24    25   ar
    28    25    26   ar
    29    26    27    1
    30    27    28    1
    31    28    29    1
    32    29    30    1
    33    30    31    1
    34    31    32    1
    35    32    33   am
    36    32    34    2
    37    31    35    1
    38    35    27    1
    39    26    36   ar
    40    36    37   ar
    41    37    23   ar
    42    11    38    1
    43    31    39    1
    44     1    40    1
    45     1    41    1
    46     1    42    1
    47     3    43    1
    48     4    44    1
    49     5    45    1
    50     6    46    1
    51     8    47    1
    52    12    48    1
    53    12    49    1
    54    13    50    1
    55    13    51    1
    56    15    52    1
    57    16    53    1
    58    17    54    1
    59    18    55    1
    60    24    56    1
    61    25    57    1
    62    28    58    1
    63    28    59    1
    64    29    60    1
    65    29    61    1
    66    30    62    1
    67    30    63    1
    68    33    64    1
    69    33    65    1
    70    35    66    1
    71    35    67    1
    72    36    68    1
    73    37    69    1
