@<TRIPOS>MOLECULE
*****
 69 73 0 0 0
SMALL
USER_CHARGES

@<TRIPOS>ATOM
      1 C1          0.8833    5.4496   -1.3789 C.3     1  LIG1        0.0000
      2 C2          1.7428    5.0298   -2.5605 C.3     1  LIG1        0.0000
      3 C3          1.8651    5.8676   -3.6641 C.3     1  LIG1        0.0000
      4 C4          2.6515    5.4830   -4.7457 C.3     1  LIG1        0.0000
      5 C5          3.3159    4.2612   -4.7230 C.3     1  LIG1        0.0000
      6 C6          3.1935    3.4233   -3.6193 C.3     1  LIG1        0.0000
      7 C7          2.4076    3.8077   -2.5378 C.3     1  LIG1        0.0000
      8 N8          2.2850    2.9645   -1.4264 N.am    1  LIG1        0.0000
      9 C9          1.0525    2.4958   -1.0547 C.2     1  LIG1        0.0000
     10 O10         0.0779    2.8079   -1.6815 O.2     1  LIG1        0.0000
     11 C11         0.9195    1.5805    0.1517 C.3     1  LIG1        0.0000
     12 C12         1.8121    0.3740   -0.1204 C.3     1  LIG1        0.0000
     13 C13         1.2045   -0.9363    0.3618 C.3     1  LIG1        0.0000
     14 C14        -0.1686   -1.0654   -0.2769 C.3     1  LIG1        0.0000
     15 C15        -0.6132   -2.2502   -0.8550 C.3     1  LIG1        0.0000
     16 C16        -1.8688   -2.3188   -1.4509 C.3     1  LIG1        0.0000
     17 C17        -2.6963   -1.2010   -1.4705 C.3     1  LIG1        0.0000
     18 C18        -2.2380   -0.0270   -0.8806 C.3     1  LIG1        0.0000
     19 C19        -0.9835    0.0593   -0.2789 C.3     1  LIG1        0.0000
     20 N20        -0.5005    1.2321    0.3217 N.am    1  LIG1        0.0000
     21 C21        -1.3209    2.0830    1.0722 C.2     1  LIG1        0.0000
     22 O22        -2.4822    1.8198    1.2206 O.2     1  LIG1        0.0000
     23 C23        -0.7670    3.2828    1.6705 C.3     1  LIG1        0.0000
     24 C24        -1.5797    4.3978    1.8521 C.3     1  LIG1        0.0000
     25 C25        -1.0573    5.5527    2.4245 C.3     1  LIG1        0.0000
     26 C26         0.2795    5.5744    2.8076 C.3     1  LIG1        0.0000
     27 N27         0.8107    6.7326    3.3831 N.pl3   1  LIG1        0.0000
     28 C28        -0.0713    7.9005    3.5593 C.3     1  LIG1        0.0000
     29 C29         0.6688    9.2240    3.4236 C.3     1  LIG1        0.0000
     30 C30         2.0353    9.2037    4.0971 C.3     1  LIG1        0.0000
     31 C31         2.9055    8.0637    3.5839 C.3     1  LIG1        0.0000
     32 C32         3.2948    8.2773    2.1290 C.2     1  LIG1        0.0000
     33 N33         3.9174    9.4372    1.7497 N.am    1  LIG1        0.0000
     34 O34         3.0564    7.4298    1.3135 O.2     1  LIG1        0.0000
     35 C35         2.2302    6.7130    3.7741 C.3     1  LIG1        0.0000
     36 C36         1.0996    4.4654    2.6295 C.3     1  LIG1        0.0000
     37 C37         0.5685    3.3139    2.0574 C.3     1  LIG1        0.0000
     38 H           1.2448    2.0573    0.9683 H       1  LIG1        0.0000
     39 H           3.7470    8.0594    4.1241 H       1  LIG1        0.0000
     40 H           0.4824    6.3475   -1.5607 H       1  LIG1        0.0000
     41 H           0.1532    4.7798   -1.2432 H       1  LIG1        0.0000
     42 H           1.4489    5.4975   -0.5556 H       1  LIG1        0.0000
     43 H           1.3879    6.7462   -3.6801 H       1  LIG1        0.0000
     44 H           2.7389    6.0851   -5.5394 H       1  LIG1        0.0000
     45 H           3.8816    3.9852   -5.5001 H       1  LIG1        0.0000
     46 H           3.6706    2.5446   -3.6034 H       1  LIG1        0.0000
     47 H           3.0972    2.7044   -0.9041 H       1  LIG1        0.0000
     48 H           2.6852    0.5116    0.3473 H       1  LIG1        0.0000
     49 H           1.9685    0.3091   -1.1060 H       1  LIG1        0.0000
     50 H           1.7833   -1.7033    0.0849 H       1  LIG1        0.0000
     51 H           1.1181   -0.9264    1.3580 H       1  LIG1        0.0000
     52 H          -0.0255   -3.0592   -0.8421 H       1  LIG1        0.0000
     53 H          -2.1773   -3.1746   -1.8663 H       1  LIG1        0.0000
     54 H          -3.5992   -1.2401   -1.8984 H       1  LIG1        0.0000
     55 H          -2.8275    0.7807   -0.8886 H       1  LIG1        0.0000
     56 H          -2.5390    4.3686    1.5713 H       1  LIG1        0.0000
     57 H          -1.6356    6.3574    2.5588 H       1  LIG1        0.0000
     58 H          -0.4823    7.8561    4.4698 H       1  LIG1        0.0000
     59 H          -0.7914    7.8645    2.8664 H       1  LIG1        0.0000
     60 H           0.1161    9.9443    3.8426 H       1  LIG1        0.0000
     61 H           0.7939    9.4227    2.4516 H       1  LIG1        0.0000
     62 H           2.4984   10.0711    3.9148 H       1  LIG1        0.0000
     63 H           1.9081    9.0946    5.0830 H       1  LIG1        0.0000
     64 H           4.1160   10.1434    2.4293 H       1  LIG1        0.0000
     65 H           4.1734    9.5776    0.7932 H       1  LIG1        0.0000
     66 H           2.7074    6.0343    3.2158 H       1  LIG1        0.0000
     67 H           2.2937    6.4556    4.7384 H       1  LIG1        0.0000
     68 H           2.0593    4.4954    2.9092 H       1  LIG1        0.0000
     69 H           1.1467    2.5089    1.9244 H       1  LIG1        0.0000
@<TRIPOS>BOND
     1     1     2    1
     2     2     3   ar
     3     3     4   ar
     4     4     5   ar
     5     5     6   ar
     6     6     7   ar
     7     7     2   ar
     8     7     8    1
     9     8     9   am
    10     9    10    2
    11     9    11    1
    12    11    12    1
    13    12    13    1
    14    13    14    1
    15    14    15   ar
    16    15    16   ar
    17    16    17   ar
    18    17    18   ar
    19    18    19   ar
    20    19    14   ar
    21    19    20    1
    22    20    11    1
    23    20    21   am
    24    21    22    2
    25    21    23    1
    26    23    24   ar
    27    24    25   ar
    28    25    26   ar
    29    26    27    1
    30    27    28    1
    31    28    29    1
    32    29    30    1
    33    30    31    1
    34    31    32    1
    35    32    33   am
    36    32    34    2
    37    31    35    1
    38    35    27    1
    39    26    36   ar
    40    36    37   ar
    41    37    23   ar
    42    11    38    1
    43    31    39    1
    44     1    40    1
    45     1    41    1
    46     1    42    1
    47     3    43    1
    48     4    44    1
    49     5    45    1
    50     6    46    1
    51     8    47    1
    52    12    48    1
    53    12    49    1
    54    13    50    1
    55    13    51    1
    56    15    52    1
    57    16    53    1
    58    17    54    1
    59    18    55    1
    60    24    56    1
    61    25    57    1
    62    28    58    1
    63    28    59    1
    64    29    60    1
    65    29    61    1
    66    30    62    1
    67    30    63    1
    68    33    64    1
    69    33    65    1
    70    35    66    1
    71    35    67    1
    72    36    68    1
    73    37    69    1
