@<TRIPOS>MOLECULE
*****
 69 73 0 0 0
SMALL
USER_CHARGES

@<TRIPOS>ATOM
      1 C1          0.4961    0.2224   -3.9762 C.3     1  LIG1        0.0000
      2 C2          1.7216   -0.3478   -4.6720 C.3     1  LIG1        0.0000
      3 C3          1.8013   -0.3363   -6.0606 C.3     1  LIG1        0.0000
      4 C4          2.9229   -0.8587   -6.6974 C.3     1  LIG1        0.0000
      5 C5          3.9646   -1.3916   -5.9452 C.3     1  LIG1        0.0000
      6 C6          3.8848   -1.4031   -4.5565 C.3     1  LIG1        0.0000
      7 C7          2.7637   -0.8807   -3.9197 C.3     1  LIG1        0.0000
      8 N8          2.6837   -0.8917   -2.5216 N.am    1  LIG1        0.0000
      9 C9          2.5606    0.2864   -1.8333 C.2     1  LIG1        0.0000
     10 O10         2.5213    1.3277   -2.4283 O.2     1  LIG1        0.0000
     11 C11         2.4738    0.2745   -0.3158 C.3     1  LIG1        0.0000
     12 C12         1.3334   -0.5570    0.2425 C.3     1  LIG1        0.0000
     13 C13         0.0565   -0.0256   -0.3907 C.3     1  LIG1        0.0000
     14 C14        -0.0684    1.4707   -0.1608 C.3     1  LIG1        0.0000
     15 C15        -1.3286    2.0528   -0.2672 C.3     1  LIG1        0.0000
     16 C16        -1.4441    3.4271   -0.0917 C.3     1  LIG1        0.0000
     17 C17        -0.3265    4.2076    0.1841 C.3     1  LIG1        0.0000
     18 C18         0.9154    3.5909    0.2878 C.3     1  LIG1        0.0000
     19 C19         1.0755    2.2170    0.1260 C.3     1  LIG1        0.0000
     20 N20         2.3458    1.6337    0.2345 N.am    1  LIG1        0.0000
     21 C21         3.4550    2.2536    0.8257 C.2     1  LIG1        0.0000
     22 O22         3.3522    3.3587    1.2820 O.2     1  LIG1        0.0000
     23 C23         4.7272    1.5595    0.8861 C.3     1  LIG1        0.0000
     24 C24         5.3496    1.1624   -0.2937 C.3     1  LIG1        0.0000
     25 C25         6.5693    0.4959   -0.2457 C.3     1  LIG1        0.0000
     26 C26         7.1506    0.2343    0.9905 C.3     1  LIG1        0.0000
     27 N27         8.3765   -0.4358    1.0454 N.pl3   1  LIG1        0.0000
     28 C28         9.0111   -0.8492   -0.2192 C.3     1  LIG1        0.0000
     29 C29         9.8069   -2.1402   -0.0851 C.3     1  LIG1        0.0000
     30 C30        10.6011   -2.2075    1.2134 C.3     1  LIG1        0.0000
     31 C31         9.7119   -2.0127    2.4347 C.3     1  LIG1        0.0000
     32 C32         8.7532   -3.1803    2.6123 C.2     1  LIG1        0.0000
     33 N33         7.9409   -3.2382    3.7139 N.am    1  LIG1        0.0000
     34 O34         8.7084   -4.0506    1.7874 O.2     1  LIG1        0.0000
     35 C35         8.9568   -0.6926    2.3741 C.3     1  LIG1        0.0000
     36 C36         6.5360    0.6265    2.1747 C.3     1  LIG1        0.0000
     37 C37         5.3167    1.2939    2.1174 C.3     1  LIG1        0.0000
     38 H           3.3277   -0.1125    0.0321 H       1  LIG1        0.0000
     39 H          10.3055   -1.9844    3.2390 H       1  LIG1        0.0000
     40 H          -0.1493    0.5602   -4.6614 H       1  LIG1        0.0000
     41 H           0.0592   -0.4931   -3.4310 H       1  LIG1        0.0000
     42 H           0.7721    0.9751   -3.3786 H       1  LIG1        0.0000
     43 H           1.0527    0.0473   -6.6012 H       1  LIG1        0.0000
     44 H           2.9800   -0.8510   -7.6957 H       1  LIG1        0.0000
     45 H           4.7709   -1.7663   -6.4028 H       1  LIG1        0.0000
     46 H           4.6334   -1.7869   -4.0158 H       1  LIG1        0.0000
     47 H           2.7165   -1.7594   -2.0257 H       1  LIG1        0.0000
     48 H           1.2911   -0.4609    1.2369 H       1  LIG1        0.0000
     49 H           1.4608   -1.5202    0.0058 H       1  LIG1        0.0000
     50 H           0.0764   -0.2070   -1.3739 H       1  LIG1        0.0000
     51 H          -0.7305   -0.4881    0.0177 H       1  LIG1        0.0000
     52 H          -2.1339    1.4941   -0.4658 H       1  LIG1        0.0000
     53 H          -2.3425    3.8601   -0.1648 H       1  LIG1        0.0000
     54 H          -0.4146    5.1962    0.3058 H       1  LIG1        0.0000
     55 H           1.7193    4.1519    0.4849 H       1  LIG1        0.0000
     56 H           4.9199    1.3563   -1.1756 H       1  LIG1        0.0000
     57 H           7.0227    0.2083   -1.0893 H       1  LIG1        0.0000
     58 H           9.6291   -0.1225   -0.5192 H       1  LIG1        0.0000
     59 H           8.2969   -0.9840   -0.9061 H       1  LIG1        0.0000
     60 H          10.4435   -2.2051   -0.8535 H       1  LIG1        0.0000
     61 H           9.1718   -2.9121   -0.1122 H       1  LIG1        0.0000
     62 H          11.0439   -3.1019    1.2754 H       1  LIG1        0.0000
     63 H          11.2981   -1.4904    1.2035 H       1  LIG1        0.0000
     64 H           7.9782   -2.5128    4.4014 H       1  LIG1        0.0000
     65 H           7.3106   -4.0057    3.8307 H       1  LIG1        0.0000
     66 H           8.2182   -0.7143    3.0479 H       1  LIG1        0.0000
     67 H           9.5893    0.0493    2.5967 H       1  LIG1        0.0000
     68 H           6.9652    0.4313    3.0566 H       1  LIG1        0.0000
     69 H           4.8642    1.5825    2.9612 H       1  LIG1        0.0000
@<TRIPOS>BOND
     1     1     2    1
     2     2     3   ar
     3     3     4   ar
     4     4     5   ar
     5     5     6   ar
     6     6     7   ar
     7     7     2   ar
     8     7     8    1
     9     8     9   am
    10     9    10    2
    11     9    11    1
    12    11    12    1
    13    12    13    1
    14    13    14    1
    15    14    15   ar
    16    15    16   ar
    17    16    17   ar
    18    17    18   ar
    19    18    19   ar
    20    19    14   ar
    21    19    20    1
    22    20    11    1
    23    20    21   am
    24    21    22    2
    25    21    23    1
    26    23    24   ar
    27    24    25   ar
    28    25    26   ar
    29    26    27    1
    30    27    28    1
    31    28    29    1
    32    29    30    1
    33    30    31    1
    34    31    32    1
    35    32    33   am
    36    32    34    2
    37    31    35    1
    38    35    27    1
    39    26    36   ar
    40    36    37   ar
    41    37    23   ar
    42    11    38    1
    43    31    39    1
    44     1    40    1
    45     1    41    1
    46     1    42    1
    47     3    43    1
    48     4    44    1
    49     5    45    1
    50     6    46    1
    51     8    47    1
    52    12    48    1
    53    12    49    1
    54    13    50    1
    55    13    51    1
    56    15    52    1
    57    16    53    1
    58    17    54    1
    59    18    55    1
    60    24    56    1
    61    25    57    1
    62    28    58    1
    63    28    59    1
    64    29    60    1
    65    29    61    1
    66    30    62    1
    67    30    63    1
    68    33    64    1
    69    33    65    1
    70    35    66    1
    71    35    67    1
    72    36    68    1
    73    37    69    1
