@<TRIPOS>MOLECULE
*****
 69 73 0 0 0
SMALL
USER_CHARGES

@<TRIPOS>ATOM
      1 C1         -2.2588    4.5579   -2.4019 C.3     1  LIG1        0.0000
      2 C2         -0.9832    4.5451   -3.2289 C.3     1  LIG1        0.0000
      3 C3         -0.8612    5.3831   -4.3323 C.3     1  LIG1        0.0000
      4 C4          0.3062    5.3709   -5.0894 C.3     1  LIG1        0.0000
      5 C5          1.3515    4.5213   -4.7423 C.3     1  LIG1        0.0000
      6 C6          1.2293    3.6832   -3.6388 C.3     1  LIG1        0.0000
      7 C7          0.0624    3.6954   -2.8816 C.3     1  LIG1        0.0000
      8 N8         -0.0601    2.8521   -1.7702 N.am    1  LIG1        0.0000
      9 C9          1.0525    2.4958   -1.0547 C.2     1  LIG1        0.0000
     10 O10         2.1321    2.9063   -1.3803 O.2     1  LIG1        0.0000
     11 C11         0.9195    1.5805    0.1517 C.3     1  LIG1        0.0000
     12 C12         1.8121    0.3740   -0.1204 C.3     1  LIG1        0.0000
     13 C13         1.2045   -0.9363    0.3618 C.3     1  LIG1        0.0000
     14 C14        -0.1686   -1.0654   -0.2769 C.3     1  LIG1        0.0000
     15 C15        -0.6132   -2.2502   -0.8550 C.3     1  LIG1        0.0000
     16 C16        -1.8688   -2.3188   -1.4509 C.3     1  LIG1        0.0000
     17 C17        -2.6963   -1.2010   -1.4705 C.3     1  LIG1        0.0000
     18 C18        -2.2380   -0.0270   -0.8806 C.3     1  LIG1        0.0000
     19 C19        -0.9835    0.0593   -0.2789 C.3     1  LIG1        0.0000
     20 N20        -0.5005    1.2321    0.3217 N.am    1  LIG1        0.0000
     21 C21        -1.3209    2.0830    1.0722 C.2     1  LIG1        0.0000
     22 O22        -0.8626    3.0755    1.5671 O.2     1  LIG1        0.0000
     23 C23        -2.7247    1.7648    1.2516 C.3     1  LIG1        0.0000
     24 C24        -3.0847    0.5725    1.8726 C.3     1  LIG1        0.0000
     25 C25        -4.4282    0.2587    2.0486 C.3     1  LIG1        0.0000
     26 C26        -5.3969    1.1483    1.5963 C.3     1  LIG1        0.0000
     27 N27        -6.7492    0.8383    1.7699 N.pl3   1  LIG1        0.0000
     28 C28        -7.7597    1.7975    1.2885 C.3     1  LIG1        0.0000
     29 C29        -9.0185    1.8071    2.1446 C.3     1  LIG1        0.0000
     30 C30        -9.4495    0.4089    2.5698 C.3     1  LIG1        0.0000
     31 C31        -8.3333   -0.3357    3.2906 C.3     1  LIG1        0.0000
     32 C32        -8.0232    0.3014    4.6366 C.2     1  LIG1        0.0000
     33 N33        -9.0226    0.4802    5.5564 N.am    1  LIG1        0.0000
     34 O34        -6.9031    0.6475    4.8928 O.2     1  LIG1        0.0000
     35 C35        -7.0796   -0.4342    2.4331 C.3     1  LIG1        0.0000
     36 C36        -5.0469    2.3418    0.9741 C.3     1  LIG1        0.0000
     37 C37        -3.7007    2.6483    0.8033 C.3     1  LIG1        0.0000
     38 H           1.2448    2.0573    0.9683 H       1  LIG1        0.0000
     39 H          -8.6543   -1.2668    3.4641 H       1  LIG1        0.0000
     40 H          -2.8999    5.2210   -2.7884 H       1  LIG1        0.0000
     41 H          -2.6730    3.6478   -2.4138 H       1  LIG1        0.0000
     42 H          -2.0426    4.8135   -1.4596 H       1  LIG1        0.0000
     43 H          -1.6124    5.9943   -4.5815 H       1  LIG1        0.0000
     44 H           0.3937    5.9729   -5.8831 H       1  LIG1        0.0000
     45 H           2.1907    4.5130   -5.2861 H       1  LIG1        0.0000
     46 H           1.9805    3.0718   -3.3898 H       1  LIG1        0.0000
     47 H          -0.9598    2.5101   -1.4989 H       1  LIG1        0.0000
     48 H           2.6852    0.5116    0.3473 H       1  LIG1        0.0000
     49 H           1.9685    0.3091   -1.1060 H       1  LIG1        0.0000
     50 H           1.7833   -1.7033    0.0849 H       1  LIG1        0.0000
     51 H           1.1181   -0.9264    1.3580 H       1  LIG1        0.0000
     52 H          -0.0255   -3.0592   -0.8421 H       1  LIG1        0.0000
     53 H          -2.1773   -3.1746   -1.8663 H       1  LIG1        0.0000
     54 H          -3.5992   -1.2401   -1.8984 H       1  LIG1        0.0000
     55 H          -2.8275    0.7807   -0.8886 H       1  LIG1        0.0000
     56 H          -2.3777   -0.0583    2.1922 H       1  LIG1        0.0000
     57 H          -4.6943   -0.5958    2.4947 H       1  LIG1        0.0000
     58 H          -8.0118    1.5530    0.3522 H       1  LIG1        0.0000
     59 H          -7.3601    2.7141    1.2975 H       1  LIG1        0.0000
     60 H          -9.7599    2.2247    1.6193 H       1  LIG1        0.0000
     61 H          -8.8436    2.3515    2.9650 H       1  LIG1        0.0000
     62 H         -10.2355    0.4856    3.1832 H       1  LIG1        0.0000
     63 H          -9.7112   -0.1100    1.7560 H       1  LIG1        0.0000
     64 H          -9.9561    0.1918    5.3429 H       1  LIG1        0.0000
     65 H          -8.8188    0.8990    6.4413 H       1  LIG1        0.0000
     66 H          -6.3122   -0.7007    3.0163 H       1  LIG1        0.0000
     67 H          -7.2242   -1.1329    1.7325 H       1  LIG1        0.0000
     68 H          -5.7542    2.9718    0.6534 H       1  LIG1        0.0000
     69 H          -3.4349    3.5036    0.3584 H       1  LIG1        0.0000
@<TRIPOS>BOND
     1     1     2    1
     2     2     3   ar
     3     3     4   ar
     4     4     5   ar
     5     5     6   ar
     6     6     7   ar
     7     7     2   ar
     8     7     8    1
     9     8     9   am
    10     9    10    2
    11     9    11    1
    12    11    12    1
    13    12    13    1
    14    13    14    1
    15    14    15   ar
    16    15    16   ar
    17    16    17   ar
    18    17    18   ar
    19    18    19   ar
    20    19    14   ar
    21    19    20    1
    22    20    11    1
    23    20    21   am
    24    21    22    2
    25    21    23    1
    26    23    24   ar
    27    24    25   ar
    28    25    26   ar
    29    26    27    1
    30    27    28    1
    31    28    29    1
    32    29    30    1
    33    30    31    1
    34    31    32    1
    35    32    33   am
    36    32    34    2
    37    31    35    1
    38    35    27    1
    39    26    36   ar
    40    36    37   ar
    41    37    23   ar
    42    11    38    1
    43    31    39    1
    44     1    40    1
    45     1    41    1
    46     1    42    1
    47     3    43    1
    48     4    44    1
    49     5    45    1
    50     6    46    1
    51     8    47    1
    52    12    48    1
    53    12    49    1
    54    13    50    1
    55    13    51    1
    56    15    52    1
    57    16    53    1
    58    17    54    1
    59    18    55    1
    60    24    56    1
    61    25    57    1
    62    28    58    1
    63    28    59    1
    64    29    60    1
    65    29    61    1
    66    30    62    1
    67    30    63    1
    68    33    64    1
    69    33    65    1
    70    35    66    1
    71    35    67    1
    72    36    68    1
    73    37    69    1
