@<TRIPOS>MOLECULE
*****
 69 73 0 0 0
SMALL
USER_CHARGES

@<TRIPOS>ATOM
      1 C1         -1.9440    2.5483   -3.8920 C.3     1  LIG1        0.0000
      2 C2         -0.8328    3.5847   -3.9410 C.3     1  LIG1        0.0000
      3 C3         -0.7115    4.4227   -5.0445 C.3     1  LIG1        0.0000
      4 C4          0.3058    5.3710   -5.0894 C.3     1  LIG1        0.0000
      5 C5          1.2009    5.4815   -4.0304 C.3     1  LIG1        0.0000
      6 C6          1.0795    4.6433   -2.9268 C.3     1  LIG1        0.0000
      7 C7          0.0624    3.6954   -2.8816 C.3     1  LIG1        0.0000
      8 N8         -0.0601    2.8521   -1.7702 N.am    1  LIG1        0.0000
      9 C9          1.0525    2.4958   -1.0547 C.2     1  LIG1        0.0000
     10 O10         2.1321    2.9063   -1.3803 O.2     1  LIG1        0.0000
     11 C11         0.9195    1.5805    0.1517 C.3     1  LIG1        0.0000
     12 C12         1.8121    0.3740   -0.1204 C.3     1  LIG1        0.0000
     13 C13         1.2045   -0.9363    0.3618 C.3     1  LIG1        0.0000
     14 C14        -0.1686   -1.0654   -0.2769 C.3     1  LIG1        0.0000
     15 C15        -0.6132   -2.2502   -0.8550 C.3     1  LIG1        0.0000
     16 C16        -1.8688   -2.3188   -1.4509 C.3     1  LIG1        0.0000
     17 C17        -2.6963   -1.2010   -1.4705 C.3     1  LIG1        0.0000
     18 C18        -2.2380   -0.0270   -0.8806 C.3     1  LIG1        0.0000
     19 C19        -0.9835    0.0593   -0.2789 C.3     1  LIG1        0.0000
     20 N20        -0.5005    1.2321    0.3217 N.am    1  LIG1        0.0000
     21 C21        -1.3209    2.0830    1.0722 C.2     1  LIG1        0.0000
     22 O22        -2.4822    1.8198    1.2206 O.2     1  LIG1        0.0000
     23 C23        -0.7670    3.2828    1.6705 C.3     1  LIG1        0.0000
     24 C24        -0.1951    4.2554    0.8557 C.3     1  LIG1        0.0000
     25 C25         0.3389    5.4087    1.4203 C.3     1  LIG1        0.0000
     26 C26         0.2931    5.5715    2.8008 C.3     1  LIG1        0.0000
     27 N27         0.8314    6.7345    3.3774 N.pl3   1  LIG1        0.0000
     28 C28         0.8128    6.9648    4.8297 C.3     1  LIG1        0.0000
     29 C29         0.6952    8.4607    5.0963 C.3     1  LIG1        0.0000
     30 C30         1.8614    9.2386    4.5093 C.3     1  LIG1        0.0000
     31 C31         2.5244    8.4776    3.3702 C.3     1  LIG1        0.0000
     32 C32         3.2980    9.4755    2.5238 C.2     1  LIG1        0.0000
     33 N33         3.9783    9.0498    1.4135 N.am    1  LIG1        0.0000
     34 O34         3.3129   10.6361    2.8283 O.2     1  LIG1        0.0000
     35 C35         1.4438    7.7869    2.5547 C.3     1  LIG1        0.0000
     36 C36        -0.2756    4.6049    3.6232 C.3     1  LIG1        0.0000
     37 C37        -0.8086    3.4548    3.0499 C.3     1  LIG1        0.0000
     38 H           1.2448    2.0573    0.9683 H       1  LIG1        0.0000
     39 H           3.1525    7.7945    3.7429 H       1  LIG1        0.0000
     40 H          -2.4902    2.6055   -4.7276 H       1  LIG1        0.0000
     41 H          -1.5445    1.6346   -3.8168 H       1  LIG1        0.0000
     42 H          -2.5280    2.7230   -3.0993 H       1  LIG1        0.0000
     43 H          -1.3554    4.3436   -5.8055 H       1  LIG1        0.0000
     44 H           0.3934    5.9731   -5.8830 H       1  LIG1        0.0000
     45 H           1.9316    6.1634   -4.0624 H       1  LIG1        0.0000
     46 H           1.7236    4.7222   -2.1659 H       1  LIG1        0.0000
     47 H          -0.9598    2.5101   -1.4989 H       1  LIG1        0.0000
     48 H           2.6852    0.5116    0.3473 H       1  LIG1        0.0000
     49 H           1.9685    0.3091   -1.1060 H       1  LIG1        0.0000
     50 H           1.7833   -1.7033    0.0849 H       1  LIG1        0.0000
     51 H           1.1181   -0.9264    1.3580 H       1  LIG1        0.0000
     52 H          -0.0255   -3.0592   -0.8421 H       1  LIG1        0.0000
     53 H          -2.1773   -3.1746   -1.8663 H       1  LIG1        0.0000
     54 H          -3.5992   -1.2401   -1.8984 H       1  LIG1        0.0000
     55 H          -2.8275    0.7807   -0.8886 H       1  LIG1        0.0000
     56 H          -0.1682    4.1250   -0.1354 H       1  LIG1        0.0000
     57 H           0.7506    6.1122    0.8410 H       1  LIG1        0.0000
     58 H           1.6589    6.6180    5.2345 H       1  LIG1        0.0000
     59 H           0.0309    6.4902    5.2339 H       1  LIG1        0.0000
     60 H           0.6717    8.6114    6.0846 H       1  LIG1        0.0000
     61 H          -0.1540    8.7954    4.6878 H       1  LIG1        0.0000
     62 H           1.5259   10.1145    4.1626 H       1  LIG1        0.0000
     63 H           2.5376    9.4015    5.2279 H       1  LIG1        0.0000
     64 H           3.9659    8.0826    1.1598 H       1  LIG1        0.0000
     65 H           4.4873    9.7063    0.8567 H       1  LIG1        0.0000
     66 H           0.7472    8.4527    2.2872 H       1  LIG1        0.0000
     67 H           1.8486    7.3806    1.7355 H       1  LIG1        0.0000
     68 H          -0.3012    4.7350    4.6144 H       1  LIG1        0.0000
     69 H          -1.2215    2.7522    3.6294 H       1  LIG1        0.0000
@<TRIPOS>BOND
     1     1     2    1
     2     2     3   ar
     3     3     4   ar
     4     4     5   ar
     5     5     6   ar
     6     6     7   ar
     7     7     2   ar
     8     7     8    1
     9     8     9   am
    10     9    10    2
    11     9    11    1
    12    11    12    1
    13    12    13    1
    14    13    14    1
    15    14    15   ar
    16    15    16   ar
    17    16    17   ar
    18    17    18   ar
    19    18    19   ar
    20    19    14   ar
    21    19    20    1
    22    20    11    1
    23    20    21   am
    24    21    22    2
    25    21    23    1
    26    23    24   ar
    27    24    25   ar
    28    25    26   ar
    29    26    27    1
    30    27    28    1
    31    28    29    1
    32    29    30    1
    33    30    31    1
    34    31    32    1
    35    32    33   am
    36    32    34    2
    37    31    35    1
    38    35    27    1
    39    26    36   ar
    40    36    37   ar
    41    37    23   ar
    42    11    38    1
    43    31    39    1
    44     1    40    1
    45     1    41    1
    46     1    42    1
    47     3    43    1
    48     4    44    1
    49     5    45    1
    50     6    46    1
    51     8    47    1
    52    12    48    1
    53    12    49    1
    54    13    50    1
    55    13    51    1
    56    15    52    1
    57    16    53    1
    58    17    54    1
    59    18    55    1
    60    24    56    1
    61    25    57    1
    62    28    58    1
    63    28    59    1
    64    29    60    1
    65    29    61    1
    66    30    62    1
    67    30    63    1
    68    33    64    1
    69    33    65    1
    70    35    66    1
    71    35    67    1
    72    36    68    1
    73    37    69    1
