@<TRIPOS>MOLECULE
*****
 69 73 0 0 0
SMALL
USER_CHARGES

@<TRIPOS>ATOM
      1 C1          4.8560    0.3821   -3.7256 C.3     1  LIG1        0.0000
      2 C2          3.7173    0.9642   -4.5476 C.3     1  LIG1        0.0000
      3 C3          3.7964    0.9745   -5.9362 C.3     1  LIG1        0.0000
      4 C4          2.7543    1.5078   -6.6884 C.3     1  LIG1        0.0000
      5 C5          1.6331    2.0297   -6.0518 C.3     1  LIG1        0.0000
      6 C6          1.5541    2.0195   -4.6630 C.3     1  LIG1        0.0000
      7 C7          2.5957    1.4862   -3.9108 C.3     1  LIG1        0.0000
      8 N8          2.5157    1.4753   -2.5126 N.am    1  LIG1        0.0000
      9 C9          2.5606    0.2864   -1.8333 C.2     1  LIG1        0.0000
     10 O10         2.6684   -0.7455   -2.4362 O.2     1  LIG1        0.0000
     11 C11         2.4738    0.2745   -0.3158 C.3     1  LIG1        0.0000
     12 C12         1.3334   -0.5570    0.2425 C.3     1  LIG1        0.0000
     13 C13         0.0565   -0.0256   -0.3907 C.3     1  LIG1        0.0000
     14 C14        -0.0684    1.4707   -0.1608 C.3     1  LIG1        0.0000
     15 C15        -1.3286    2.0528   -0.2672 C.3     1  LIG1        0.0000
     16 C16        -1.4441    3.4271   -0.0917 C.3     1  LIG1        0.0000
     17 C17        -0.3265    4.2076    0.1841 C.3     1  LIG1        0.0000
     18 C18         0.9154    3.5909    0.2878 C.3     1  LIG1        0.0000
     19 C19         1.0755    2.2170    0.1260 C.3     1  LIG1        0.0000
     20 N20         2.3458    1.6337    0.2345 N.am    1  LIG1        0.0000
     21 C21         3.4550    2.2536    0.8257 C.2     1  LIG1        0.0000
     22 O22         3.3522    3.3587    1.2820 O.2     1  LIG1        0.0000
     23 C23         4.7272    1.5595    0.8861 C.3     1  LIG1        0.0000
     24 C24         5.6028    1.8203    1.9359 C.3     1  LIG1        0.0000
     25 C25         6.8250    1.1599    2.0019 C.3     1  LIG1        0.0000
     26 C26         7.1547    0.2435    1.0090 C.3     1  LIG1        0.0000
     27 N27         8.3828   -0.4237    1.0696 N.pl3   1  LIG1        0.0000
     28 C28         9.2863   -0.1303    2.1946 C.3     1  LIG1        0.0000
     29 C29        10.1055   -1.3459    2.6066 C.3     1  LIG1        0.0000
     30 C30        10.7030   -2.0787    1.4126 C.3     1  LIG1        0.0000
     31 C31         9.5570   -2.5460    0.5245 C.3     1  LIG1        0.0000
     32 C32        10.0836   -3.3537   -0.6504 C.2     1  LIG1        0.0000
     33 N33         9.2080   -3.9473   -1.5210 N.am    1  LIG1        0.0000
     34 O34        11.2664   -3.4716   -0.8155 O.2     1  LIG1        0.0000
     35 C35         8.7120   -1.3898    0.0083 C.3     1  LIG1        0.0000
     36 C36         6.2867   -0.0234   -0.0442 C.3     1  LIG1        0.0000
     37 C37         5.0656    0.6408   -0.1017 C.3     1  LIG1        0.0000
     38 H           3.3277   -0.1125    0.0321 H       1  LIG1        0.0000
     39 H           8.9666   -3.1414    1.0693 H       1  LIG1        0.0000
     40 H           5.5755    0.0545   -4.3379 H       1  LIG1        0.0000
     41 H           5.2272    1.0886   -3.1230 H       1  LIG1        0.0000
     42 H           4.5143   -0.3796   -3.1751 H       1  LIG1        0.0000
     43 H           4.6022    0.5987   -6.3939 H       1  LIG1        0.0000
     44 H           2.8114    1.5157   -7.6868 H       1  LIG1        0.0000
     45 H           0.8839    2.4123   -6.5924 H       1  LIG1        0.0000
     46 H           0.7484    2.3955   -4.2053 H       1  LIG1        0.0000
     47 H           2.4259    2.3352   -2.0102 H       1  LIG1        0.0000
     48 H           1.2911   -0.4609    1.2369 H       1  LIG1        0.0000
     49 H           1.4608   -1.5202    0.0058 H       1  LIG1        0.0000
     50 H           0.0764   -0.2070   -1.3739 H       1  LIG1        0.0000
     51 H          -0.7305   -0.4881    0.0177 H       1  LIG1        0.0000
     52 H          -2.1339    1.4941   -0.4658 H       1  LIG1        0.0000
     53 H          -2.3425    3.8601   -0.1648 H       1  LIG1        0.0000
     54 H          -0.4146    5.1962    0.3058 H       1  LIG1        0.0000
     55 H           1.7193    4.1519    0.4849 H       1  LIG1        0.0000
     56 H           5.3532    2.4824    2.6426 H       1  LIG1        0.0000
     57 H           7.4588    1.3417    2.7537 H       1  LIG1        0.0000
     58 H           8.7400    0.1699    2.9765 H       1  LIG1        0.0000
     59 H           9.9109    0.6021    1.9235 H       1  LIG1        0.0000
     60 H           9.5130   -1.9773    3.1067 H       1  LIG1        0.0000
     61 H          10.8496   -1.0441    3.2026 H       1  LIG1        0.0000
     62 H          11.2997   -1.4616    0.8997 H       1  LIG1        0.0000
     63 H          11.2309   -2.8672    1.7280 H       1  LIG1        0.0000
     64 H           8.2224   -3.8491   -1.3834 H       1  LIG1        0.0000
     65 H           9.5544   -4.4787   -2.2940 H       1  LIG1        0.0000
     66 H           9.2194   -0.9166   -0.7119 H       1  LIG1        0.0000
     67 H           7.8613   -1.7561   -0.3689 H       1  LIG1        0.0000
     68 H           6.5371   -0.6845   -0.7515 H       1  LIG1        0.0000
     69 H           4.4315    0.4578   -0.8530 H       1  LIG1        0.0000
@<TRIPOS>BOND
     1     1     2    1
     2     2     3   ar
     3     3     4   ar
     4     4     5   ar
     5     5     6   ar
     6     6     7   ar
     7     7     2   ar
     8     7     8    1
     9     8     9   am
    10     9    10    2
    11     9    11    1
    12    11    12    1
    13    12    13    1
    14    13    14    1
    15    14    15   ar
    16    15    16   ar
    17    16    17   ar
    18    17    18   ar
    19    18    19   ar
    20    19    14   ar
    21    19    20    1
    22    20    11    1
    23    20    21   am
    24    21    22    2
    25    21    23    1
    26    23    24   ar
    27    24    25   ar
    28    25    26   ar
    29    26    27    1
    30    27    28    1
    31    28    29    1
    32    29    30    1
    33    30    31    1
    34    31    32    1
    35    32    33   am
    36    32    34    2
    37    31    35    1
    38    35    27    1
    39    26    36   ar
    40    36    37   ar
    41    37    23   ar
    42    11    38    1
    43    31    39    1
    44     1    40    1
    45     1    41    1
    46     1    42    1
    47     3    43    1
    48     4    44    1
    49     5    45    1
    50     6    46    1
    51     8    47    1
    52    12    48    1
    53    12    49    1
    54    13    50    1
    55    13    51    1
    56    15    52    1
    57    16    53    1
    58    17    54    1
    59    18    55    1
    60    24    56    1
    61    25    57    1
    62    28    58    1
    63    28    59    1
    64    29    60    1
    65    29    61    1
    66    30    62    1
    67    30    63    1
    68    33    64    1
    69    33    65    1
    70    35    66    1
    71    35    67    1
    72    36    68    1
    73    37    69    1
