@<TRIPOS>MOLECULE
*****
 69 73 0 0 0
SMALL
USER_CHARGES

@<TRIPOS>ATOM
      1 C1          4.1702   -2.9705   -3.7911 C.3     1  LIG1        0.0000
      2 C2          3.4773   -1.8737   -4.5835 C.3     1  LIG1        0.0000
      3 C3          3.5561   -1.8632   -5.9722 C.3     1  LIG1        0.0000
      4 C4          2.9222   -0.8590   -6.6974 C.3     1  LIG1        0.0000
      5 C5          2.2089    0.1338   -6.0337 C.3     1  LIG1        0.0000
      6 C6          2.1302    0.1233   -4.6449 C.3     1  LIG1        0.0000
      7 C7          2.7637   -0.8807   -3.9197 C.3     1  LIG1        0.0000
      8 N8          2.6837   -0.8917   -2.5216 N.am    1  LIG1        0.0000
      9 C9          2.5606    0.2864   -1.8333 C.2     1  LIG1        0.0000
     10 O10         2.5213    1.3277   -2.4283 O.2     1  LIG1        0.0000
     11 C11         2.4738    0.2745   -0.3158 C.3     1  LIG1        0.0000
     12 C12         1.3334   -0.5570    0.2425 C.3     1  LIG1        0.0000
     13 C13         0.0565   -0.0256   -0.3907 C.3     1  LIG1        0.0000
     14 C14        -0.0684    1.4707   -0.1608 C.3     1  LIG1        0.0000
     15 C15        -1.3286    2.0528   -0.2672 C.3     1  LIG1        0.0000
     16 C16        -1.4441    3.4271   -0.0917 C.3     1  LIG1        0.0000
     17 C17        -0.3265    4.2076    0.1841 C.3     1  LIG1        0.0000
     18 C18         0.9154    3.5909    0.2878 C.3     1  LIG1        0.0000
     19 C19         1.0755    2.2170    0.1260 C.3     1  LIG1        0.0000
     20 N20         2.3458    1.6337    0.2345 N.am    1  LIG1        0.0000
     21 C21         3.4550    2.2536    0.8257 C.2     1  LIG1        0.0000
     22 O22         3.3522    3.3587    1.2820 O.2     1  LIG1        0.0000
     23 C23         4.7272    1.5595    0.8861 C.3     1  LIG1        0.0000
     24 C24         5.9107    2.2914    0.8642 C.3     1  LIG1        0.0000
     25 C25         7.1352    1.6345    0.9212 C.3     1  LIG1        0.0000
     26 C26         7.1566    0.2460    0.9985 C.3     1  LIG1        0.0000
     27 N27         8.3894   -0.4229    1.0559 N.pl3   1  LIG1        0.0000
     28 C28         8.4812   -1.8860    1.1252 C.3     1  LIG1        0.0000
     29 C29         9.7760   -2.3680    0.4847 C.3     1  LIG1        0.0000
     30 C30        11.0337   -1.7199    1.0563 C.3     1  LIG1        0.0000
     31 C31        10.7540   -0.4172    1.8047 C.3     1  LIG1        0.0000
     32 C32        10.3734   -0.6623    3.2572 C.2     1  LIG1        0.0000
     33 N33        10.0996    0.3969    4.0817 N.am    1  LIG1        0.0000
     34 O34        10.3131   -1.7835    3.6806 O.2     1  LIG1        0.0000
     35 C35         9.6623    0.3131    1.0361 C.3     1  LIG1        0.0000
     36 C36         5.9793   -0.4940    1.0203 C.3     1  LIG1        0.0000
     37 C37         4.7588    0.1713    0.9642 C.3     1  LIG1        0.0000
     38 H           3.3277   -0.1125    0.0321 H       1  LIG1        0.0000
     39 H          11.5825    0.1425    1.7853 H       1  LIG1        0.0000
     40 H           4.6324   -3.5953   -4.4204 H       1  LIG1        0.0000
     41 H           4.8423   -2.5618   -3.1736 H       1  LIG1        0.0000
     42 H           3.4918   -3.4759   -3.2579 H       1  LIG1        0.0000
     43 H           4.0684   -2.5773   -6.4493 H       1  LIG1        0.0000
     44 H           2.9794   -0.8511   -7.6957 H       1  LIG1        0.0000
     45 H           1.7528    0.8551   -6.5549 H       1  LIG1        0.0000
     46 H           1.6181    0.8375   -4.1677 H       1  LIG1        0.0000
     47 H           2.7165   -1.7594   -2.0257 H       1  LIG1        0.0000
     48 H           1.2911   -0.4609    1.2369 H       1  LIG1        0.0000
     49 H           1.4608   -1.5202    0.0058 H       1  LIG1        0.0000
     50 H           0.0764   -0.2070   -1.3739 H       1  LIG1        0.0000
     51 H          -0.7305   -0.4881    0.0177 H       1  LIG1        0.0000
     52 H          -2.1339    1.4941   -0.4658 H       1  LIG1        0.0000
     53 H          -2.3425    3.8601   -0.1648 H       1  LIG1        0.0000
     54 H          -0.4146    5.1962    0.3058 H       1  LIG1        0.0000
     55 H           1.7193    4.1519    0.4849 H       1  LIG1        0.0000
     56 H           5.8806    3.2893    0.8076 H       1  LIG1        0.0000
     57 H           7.9896    2.1540    0.9068 H       1  LIG1        0.0000
     58 H           7.7043   -2.2882    0.6406 H       1  LIG1        0.0000
     59 H           8.4610   -2.1724    2.0831 H       1  LIG1        0.0000
     60 H           9.7360   -2.1665   -0.4940 H       1  LIG1        0.0000
     61 H           9.8435   -3.3567    0.6190 H       1  LIG1        0.0000
     62 H          11.4633   -2.3640    1.6893 H       1  LIG1        0.0000
     63 H          11.6612   -1.5248    0.3025 H       1  LIG1        0.0000
     64 H          10.1499    1.3313    3.7288 H       1  LIG1        0.0000
     65 H           9.8494    0.2358    5.0364 H       1  LIG1        0.0000
     66 H           9.5220    1.2124    1.4504 H       1  LIG1        0.0000
     67 H           9.9556    0.4257    0.0868 H       1  LIG1        0.0000
     68 H           6.0098   -1.4920    1.0756 H       1  LIG1        0.0000
     69 H           3.9046   -0.3484    0.9800 H       1  LIG1        0.0000
@<TRIPOS>BOND
     1     1     2    1
     2     2     3   ar
     3     3     4   ar
     4     4     5   ar
     5     5     6   ar
     6     6     7   ar
     7     7     2   ar
     8     7     8    1
     9     8     9   am
    10     9    10    2
    11     9    11    1
    12    11    12    1
    13    12    13    1
    14    13    14    1
    15    14    15   ar
    16    15    16   ar
    17    16    17   ar
    18    17    18   ar
    19    18    19   ar
    20    19    14   ar
    21    19    20    1
    22    20    11    1
    23    20    21   am
    24    21    22    2
    25    21    23    1
    26    23    24   ar
    27    24    25   ar
    28    25    26   ar
    29    26    27    1
    30    27    28    1
    31    28    29    1
    32    29    30    1
    33    30    31    1
    34    31    32    1
    35    32    33   am
    36    32    34    2
    37    31    35    1
    38    35    27    1
    39    26    36   ar
    40    36    37   ar
    41    37    23   ar
    42    11    38    1
    43    31    39    1
    44     1    40    1
    45     1    41    1
    46     1    42    1
    47     3    43    1
    48     4    44    1
    49     5    45    1
    50     6    46    1
    51     8    47    1
    52    12    48    1
    53    12    49    1
    54    13    50    1
    55    13    51    1
    56    15    52    1
    57    16    53    1
    58    17    54    1
    59    18    55    1
    60    24    56    1
    61    25    57    1
    62    28    58    1
    63    28    59    1
    64    29    60    1
    65    29    61    1
    66    30    62    1
    67    30    63    1
    68    33    64    1
    69    33    65    1
    70    35    66    1
    71    35    67    1
    72    36    68    1
    73    37    69    1
