@<TRIPOS>MOLECULE
*****
 69 73 0 0 0
SMALL
USER_CHARGES

@<TRIPOS>ATOM
      1 C1          1.4286    1.9688   -3.9598 C.3     1  LIG1        0.0000
      2 C2          2.0033    3.3664   -3.7938 C.3     1  LIG1        0.0000
      3 C3          2.1244    4.2042   -4.8975 C.3     1  LIG1        0.0000
      4 C4          2.6508    5.4832   -4.7456 C.3     1  LIG1        0.0000
      5 C5          3.0551    5.9243   -3.4899 C.3     1  LIG1        0.0000
      6 C6          2.9341    5.0864   -2.3861 C.3     1  LIG1        0.0000
      7 C7          2.4076    3.8077   -2.5378 C.3     1  LIG1        0.0000
      8 N8          2.2850    2.9645   -1.4264 N.am    1  LIG1        0.0000
      9 C9          1.0525    2.4958   -1.0547 C.2     1  LIG1        0.0000
     10 O10         0.0779    2.8079   -1.6815 O.2     1  LIG1        0.0000
     11 C11         0.9195    1.5805    0.1517 C.3     1  LIG1        0.0000
     12 C12         1.8121    0.3740   -0.1204 C.3     1  LIG1        0.0000
     13 C13         1.2045   -0.9363    0.3618 C.3     1  LIG1        0.0000
     14 C14        -0.1686   -1.0654   -0.2769 C.3     1  LIG1        0.0000
     15 C15        -0.6132   -2.2502   -0.8550 C.3     1  LIG1        0.0000
     16 C16        -1.8688   -2.3188   -1.4509 C.3     1  LIG1        0.0000
     17 C17        -2.6963   -1.2010   -1.4705 C.3     1  LIG1        0.0000
     18 C18        -2.2380   -0.0270   -0.8806 C.3     1  LIG1        0.0000
     19 C19        -0.9835    0.0593   -0.2789 C.3     1  LIG1        0.0000
     20 N20        -0.5005    1.2321    0.3217 N.am    1  LIG1        0.0000
     21 C21        -1.3209    2.0830    1.0722 C.2     1  LIG1        0.0000
     22 O22        -2.4822    1.8198    1.2206 O.2     1  LIG1        0.0000
     23 C23        -0.7670    3.2828    1.6705 C.3     1  LIG1        0.0000
     24 C24        -1.5797    4.3978    1.8521 C.3     1  LIG1        0.0000
     25 C25        -1.0573    5.5527    2.4245 C.3     1  LIG1        0.0000
     26 C26         0.2795    5.5744    2.8076 C.3     1  LIG1        0.0000
     27 N27         0.8110    6.7332    3.3834 N.pl3   1  LIG1        0.0000
     28 C28         2.2297    6.7340    3.7776 C.3     1  LIG1        0.0000
     29 C29         2.8690    8.1073    3.6228 C.3     1  LIG1        0.0000
     30 C30         1.9956    9.2236    4.1802 C.3     1  LIG1        0.0000
     31 C31         0.6766    9.2153    3.4184 C.3     1  LIG1        0.0000
     32 C32        -0.2146   10.3584    3.8760 C.2     1  LIG1        0.0000
     33 N33         0.2488   11.6470    3.8349 N.am    1  LIG1        0.0000
     34 O34        -1.3241   10.1322    4.2732 O.2     1  LIG1        0.0000
     35 C35        -0.0717    7.8977    3.5645 C.3     1  LIG1        0.0000
     36 C36         1.0996    4.4654    2.6295 C.3     1  LIG1        0.0000
     37 C37         0.5685    3.3139    2.0574 C.3     1  LIG1        0.0000
     38 H           1.2448    2.0573    0.9683 H       1  LIG1        0.0000
     39 H           0.8789    9.3501    2.4484 H       1  LIG1        0.0000
     40 H           1.1920    1.8174   -4.9195 H       1  LIG1        0.0000
     41 H           2.1077    1.2929   -3.6733 H       1  LIG1        0.0000
     42 H           0.6081    1.8766   -3.3957 H       1  LIG1        0.0000
     43 H           1.8331    3.8873   -5.8002 H       1  LIG1        0.0000
     44 H           2.7385    6.0854   -5.5392 H       1  LIG1        0.0000
     45 H           3.4329    6.8438   -3.3807 H       1  LIG1        0.0000
     46 H           3.2255    5.4032   -1.4836 H       1  LIG1        0.0000
     47 H           3.0972    2.7044   -0.9041 H       1  LIG1        0.0000
     48 H           2.6852    0.5116    0.3473 H       1  LIG1        0.0000
     49 H           1.9685    0.3091   -1.1060 H       1  LIG1        0.0000
     50 H           1.7833   -1.7033    0.0849 H       1  LIG1        0.0000
     51 H           1.1181   -0.9264    1.3580 H       1  LIG1        0.0000
     52 H          -0.0255   -3.0592   -0.8421 H       1  LIG1        0.0000
     53 H          -2.1773   -3.1746   -1.8663 H       1  LIG1        0.0000
     54 H          -3.5992   -1.2401   -1.8984 H       1  LIG1        0.0000
     55 H          -2.8275    0.7807   -0.8886 H       1  LIG1        0.0000
     56 H          -2.5390    4.3686    1.5713 H       1  LIG1        0.0000
     57 H          -1.6356    6.3574    2.5588 H       1  LIG1        0.0000
     58 H           2.7241    6.0820    3.2027 H       1  LIG1        0.0000
     59 H           2.2981    6.4530    4.7349 H       1  LIG1        0.0000
     60 H           3.0277    8.2794    2.6506 H       1  LIG1        0.0000
     61 H           3.7429    8.1108    4.1090 H       1  LIG1        0.0000
     62 H           1.8262    9.0679    5.1534 H       1  LIG1        0.0000
     63 H           2.4523   10.1047    4.0581 H       1  LIG1        0.0000
     64 H           1.1734   11.8355    3.5039 H       1  LIG1        0.0000
     65 H          -0.3375   12.3990    4.1360 H       1  LIG1        0.0000
     66 H          -0.4757    7.8565    4.4784 H       1  LIG1        0.0000
     67 H          -0.7974    7.8617    2.8774 H       1  LIG1        0.0000
     68 H           2.0593    4.4954    2.9092 H       1  LIG1        0.0000
     69 H           1.1467    2.5089    1.9244 H       1  LIG1        0.0000
@<TRIPOS>BOND
     1     1     2    1
     2     2     3   ar
     3     3     4   ar
     4     4     5   ar
     5     5     6   ar
     6     6     7   ar
     7     7     2   ar
     8     7     8    1
     9     8     9   am
    10     9    10    2
    11     9    11    1
    12    11    12    1
    13    12    13    1
    14    13    14    1
    15    14    15   ar
    16    15    16   ar
    17    16    17   ar
    18    17    18   ar
    19    18    19   ar
    20    19    14   ar
    21    19    20    1
    22    20    11    1
    23    20    21   am
    24    21    22    2
    25    21    23    1
    26    23    24   ar
    27    24    25   ar
    28    25    26   ar
    29    26    27    1
    30    27    28    1
    31    28    29    1
    32    29    30    1
    33    30    31    1
    34    31    32    1
    35    32    33   am
    36    32    34    2
    37    31    35    1
    38    35    27    1
    39    26    36   ar
    40    36    37   ar
    41    37    23   ar
    42    11    38    1
    43    31    39    1
    44     1    40    1
    45     1    41    1
    46     1    42    1
    47     3    43    1
    48     4    44    1
    49     5    45    1
    50     6    46    1
    51     8    47    1
    52    12    48    1
    53    12    49    1
    54    13    50    1
    55    13    51    1
    56    15    52    1
    57    16    53    1
    58    17    54    1
    59    18    55    1
    60    24    56    1
    61    25    57    1
    62    28    58    1
    63    28    59    1
    64    29    60    1
    65    29    61    1
    66    30    62    1
    67    30    63    1
    68    33    64    1
    69    33    65    1
    70    35    66    1
    71    35    67    1
    72    36    68    1
    73    37    69    1
