@<TRIPOS>MOLECULE
*****
 69 73 0 0 0
SMALL
USER_CHARGES

@<TRIPOS>ATOM
      1 C1          1.6592   -3.1483   -3.9361 C.3     1  LIG1        0.0000
      2 C2          2.2773   -1.9586   -4.6528 C.3     1  LIG1        0.0000
      3 C3          2.3561   -1.9474   -6.0415 C.3     1  LIG1        0.0000
      4 C4          2.9223   -0.8586   -6.6974 C.3     1  LIG1        0.0000
      5 C5          3.4087    0.2189   -5.9644 C.3     1  LIG1        0.0000
      6 C6          3.3299    0.2076   -4.5756 C.3     1  LIG1        0.0000
      7 C7          2.7637   -0.8807   -3.9197 C.3     1  LIG1        0.0000
      8 N8          2.6837   -0.8917   -2.5216 N.am    1  LIG1        0.0000
      9 C9          2.5606    0.2864   -1.8333 C.2     1  LIG1        0.0000
     10 O10         2.5213    1.3277   -2.4283 O.2     1  LIG1        0.0000
     11 C11         2.4738    0.2745   -0.3158 C.3     1  LIG1        0.0000
     12 C12         1.3334   -0.5570    0.2425 C.3     1  LIG1        0.0000
     13 C13         0.0565   -0.0256   -0.3907 C.3     1  LIG1        0.0000
     14 C14        -0.0684    1.4707   -0.1608 C.3     1  LIG1        0.0000
     15 C15        -1.3286    2.0528   -0.2672 C.3     1  LIG1        0.0000
     16 C16        -1.4441    3.4271   -0.0917 C.3     1  LIG1        0.0000
     17 C17        -0.3265    4.2076    0.1841 C.3     1  LIG1        0.0000
     18 C18         0.9154    3.5909    0.2878 C.3     1  LIG1        0.0000
     19 C19         1.0755    2.2170    0.1260 C.3     1  LIG1        0.0000
     20 N20         2.3458    1.6337    0.2345 N.am    1  LIG1        0.0000
     21 C21         3.4550    2.2536    0.8257 C.2     1  LIG1        0.0000
     22 O22         3.3522    3.3587    1.2820 O.2     1  LIG1        0.0000
     23 C23         4.7272    1.5595    0.8861 C.3     1  LIG1        0.0000
     24 C24         5.3496    1.1624   -0.2937 C.3     1  LIG1        0.0000
     25 C25         6.5693    0.4959   -0.2457 C.3     1  LIG1        0.0000
     26 C26         7.1506    0.2343    0.9905 C.3     1  LIG1        0.0000
     27 N27         8.3827   -0.4392    1.0456 N.pl3   1  LIG1        0.0000
     28 C28         9.0477   -0.7443    2.3213 C.3     1  LIG1        0.0000
     29 C29        10.5576   -0.7162    2.1162 C.3     1  LIG1        0.0000
     30 C30        11.0134   -1.7394    1.0891 C.3     1  LIG1        0.0000
     31 C31         9.8851   -2.1216    0.1419 C.3     1  LIG1        0.0000
     32 C32        10.5042   -2.7091   -1.1161 C.2     1  LIG1        0.0000
     33 N33        11.3741   -1.9612   -1.8649 N.am    1  LIG1        0.0000
     34 O34        10.2310   -3.8279   -1.4531 O.2     1  LIG1        0.0000
     35 C35         9.0748   -0.8755   -0.1750 C.3     1  LIG1        0.0000
     36 C36         6.5360    0.6265    2.1747 C.3     1  LIG1        0.0000
     37 C37         5.3167    1.2939    2.1174 C.3     1  LIG1        0.0000
     38 H           3.3277   -0.1125    0.0321 H       1  LIG1        0.0000
     39 H           9.2971   -2.8034    0.5771 H       1  LIG1        0.0000
     40 H           1.3644   -3.8266   -4.6092 H       1  LIG1        0.0000
     41 H           2.3364   -3.5578   -3.3248 H       1  LIG1        0.0000
     42 H           0.8702   -2.8431   -3.4029 H       1  LIG1        0.0000
     43 H           2.0059   -2.7218   -6.5684 H       1  LIG1        0.0000
     44 H           2.9796   -0.8508   -7.6957 H       1  LIG1        0.0000
     45 H           3.8150    1.0016   -6.4358 H       1  LIG1        0.0000
     46 H           3.6803    0.9819   -4.0486 H       1  LIG1        0.0000
     47 H           2.7165   -1.7594   -2.0257 H       1  LIG1        0.0000
     48 H           1.2911   -0.4609    1.2369 H       1  LIG1        0.0000
     49 H           1.4608   -1.5202    0.0058 H       1  LIG1        0.0000
     50 H           0.0764   -0.2070   -1.3739 H       1  LIG1        0.0000
     51 H          -0.7305   -0.4881    0.0177 H       1  LIG1        0.0000
     52 H          -2.1339    1.4941   -0.4658 H       1  LIG1        0.0000
     53 H          -2.3425    3.8601   -0.1648 H       1  LIG1        0.0000
     54 H          -0.4146    5.1962    0.3058 H       1  LIG1        0.0000
     55 H           1.7193    4.1519    0.4849 H       1  LIG1        0.0000
     56 H           4.9199    1.3563   -1.1756 H       1  LIG1        0.0000
     57 H           7.0227    0.2083   -1.0893 H       1  LIG1        0.0000
     58 H           8.7693   -1.6520    2.6353 H       1  LIG1        0.0000
     59 H           8.7899   -0.0616    3.0049 H       1  LIG1        0.0000
     60 H          11.0054   -0.9132    2.9884 H       1  LIG1        0.0000
     61 H          10.8238    0.1955    1.8034 H       1  LIG1        0.0000
     62 H          11.7667   -1.3524    0.5574 H       1  LIG1        0.0000
     63 H          11.3290   -2.5598    1.5659 H       1  LIG1        0.0000
     64 H          11.6018   -1.0289   -1.5840 H       1  LIG1        0.0000
     65 H          11.7814   -2.3476   -2.6925 H       1  LIG1        0.0000
     66 H           9.6846   -0.1498   -0.4936 H       1  LIG1        0.0000
     67 H           8.4034   -1.0829   -0.8865 H       1  LIG1        0.0000
     68 H           6.9652    0.4313    3.0566 H       1  LIG1        0.0000
     69 H           4.8642    1.5825    2.9612 H       1  LIG1        0.0000
@<TRIPOS>BOND
     1     1     2    1
     2     2     3   ar
     3     3     4   ar
     4     4     5   ar
     5     5     6   ar
     6     6     7   ar
     7     7     2   ar
     8     7     8    1
     9     8     9   am
    10     9    10    2
    11     9    11    1
    12    11    12    1
    13    12    13    1
    14    13    14    1
    15    14    15   ar
    16    15    16   ar
    17    16    17   ar
    18    17    18   ar
    19    18    19   ar
    20    19    14   ar
    21    19    20    1
    22    20    11    1
    23    20    21   am
    24    21    22    2
    25    21    23    1
    26    23    24   ar
    27    24    25   ar
    28    25    26   ar
    29    26    27    1
    30    27    28    1
    31    28    29    1
    32    29    30    1
    33    30    31    1
    34    31    32    1
    35    32    33   am
    36    32    34    2
    37    31    35    1
    38    35    27    1
    39    26    36   ar
    40    36    37   ar
    41    37    23   ar
    42    11    38    1
    43    31    39    1
    44     1    40    1
    45     1    41    1
    46     1    42    1
    47     3    43    1
    48     4    44    1
    49     5    45    1
    50     6    46    1
    51     8    47    1
    52    12    48    1
    53    12    49    1
    54    13    50    1
    55    13    51    1
    56    15    52    1
    57    16    53    1
    58    17    54    1
    59    18    55    1
    60    24    56    1
    61    25    57    1
    62    28    58    1
    63    28    59    1
    64    29    60    1
    65    29    61    1
    66    30    62    1
    67    30    63    1
    68    33    64    1
    69    33    65    1
    70    35    66    1
    71    35    67    1
    72    36    68    1
    73    37    69    1
