@<TRIPOS>MOLECULE

  32   34
SMALL
USER_CHARGES
@<TRIPOS>ATOM
   1 O1           1.0733     1.4513    -0.3444 O.3          1    LIG   0.0000
   2 C2           1.0000     1.0000     1.0000 C.3          1    LIG   0.0000
   3 C3           1.8781     1.8781     1.8781 C.3          1    LIG   0.0000
   4 C4           1.8688     1.2666     3.2704 C.3          1    LIG   0.0000
   5 C5           3.3133     0.9489     3.5918 C.3          1    LIG   0.0000
   6 O6           3.4255    -0.2504     4.3492 O.3          1    LIG   0.0000
   7 C7           3.9764     0.8162     2.2343 C.3          1    LIG   0.0000
   8 N8           3.2750     1.8248     1.4381 N.pl3        1    LIG   0.0000
   9 C9           3.8447     2.6145     0.4324 C.ar         1    LIG   0.0000
  10 C10          4.4093     3.8370     0.7901 C.ar         1    LIG   0.0000
  11 Br11         4.3970     4.4543     2.6516 Br           1    LIG   0.0000
  12 C12          4.9829     4.6190    -0.2081 C.ar         1    LIG   0.0000
  13 C13          4.9649     4.1554    -1.5199 C.ar         1    LIG   0.0000
  14 C14          4.3839     2.9457    -1.8652 C.ar         1    LIG   0.0000
  15 C15          3.8230     2.1596    -0.8821 C.ar         1    LIG   0.0000
  16 O16          3.3268     1.0585    -1.4688 O.3          1    LIG   0.0000
  17 C17          3.9783     0.9524    -2.7199 C.3          1    LIG   0.0000
  18 O18          4.2158     2.3053    -3.0363 O.3          1    LIG   0.0000
  19 H            1.5420     2.8197     1.8961 H            1    LIG   0.0000
  20 H            3.7233     1.7085     4.0967 H            1    LIG   0.0000
  21 H            0.4959     0.8739    -0.9217 H            1    LIG   0.0000
  22 H            1.3178     0.0532     1.0516 H            1    LIG   0.0000
  23 H            0.0532     1.0516     1.3178 H            1    LIG   0.0000
  24 H            1.4995     1.9173     3.9339 H            1    LIG   0.0000
  25 H            1.3183     0.4318     3.2803 H            1    LIG   0.0000
  26 H            2.9790    -0.1279     5.2356 H            1    LIG   0.0000
  27 H            4.9548     1.0155     2.2892 H            1    LIG   0.0000
  28 H            3.8436    -0.0997     1.8554 H            1    LIG   0.0000
  29 H            5.4012     5.4997     0.0138 H            1    LIG   0.0000
  30 H            5.3846     4.7128    -2.2362 H            1    LIG   0.0000
  31 H            3.3898     0.5169    -3.4011 H            1    LIG   0.0000
  32 H            4.8340     0.4407    -2.6427 H            1    LIG   0.0000
@<TRIPOS>BOND
   1        1        2 1
   2        2        3 1
   3        3        4 1
   4        4        5 1
   5        5        6 1
   6        5        7 1
   7        7        8 1
   8        8        3 1
   9        8        9 1
  10        9       10 ar
  11       10       11 1
  12       10       12 ar
  13       12       13 ar
  14       13       14 ar
  15       14       15 ar
  16       15        9 ar
  17       15       16 1
  18       16       17 1
  19       17       18 1
  20       18       14 1
  21        3       19 1
  22        5       20 1
  23        1       21 1
  24        2       22 1
  25        2       23 1
  26        4       24 1
  27        4       25 1
  28        6       26 1
  29        7       27 1
  30        7       28 1
  31       12       29 1
  32       13       30 1
  33       17       31 1
  34       17       32 1

@<TRIPOS>MOLECULE

  32   34
SMALL
USER_CHARGES
@<TRIPOS>ATOM
   1 O1           1.0733     1.4513    -0.3444 O.3          1    LIG   0.0000
   2 C2           1.0000     1.0000     1.0000 C.3          1    LIG   0.0000
   3 C3           1.8781     1.8781     1.8781 C.3          1    LIG   0.0000
   4 C4           1.8688     1.2666     3.2704 C.3          1    LIG   0.0000
   5 C5           3.3133     0.9489     3.5918 C.3          1    LIG   0.0000
   6 O6           3.4255    -0.2504     4.3492 O.3          1    LIG   0.0000
   7 C7           3.9764     0.8162     2.2343 C.3          1    LIG   0.0000
   8 N8           3.2750     1.8248     1.4381 N.pl3        1    LIG   0.0000
   9 C9           3.8447     2.6145     0.4324 C.ar         1    LIG   0.0000
  10 C10          3.8194     2.1395    -0.8771 C.ar         1    LIG   0.0000
  11 Br11         3.0226     0.4006    -1.3104 Br           1    LIG   0.0000
  12 C12          4.3786     2.9279    -1.8785 C.ar         1    LIG   0.0000
  13 C13          4.9448     4.1514    -1.5344 C.ar         1    LIG   0.0000
  14 C14          4.9798     4.6041    -0.2252 C.ar         1    LIG   0.0000
  15 C15          4.4191     3.8354     0.7716 C.ar         1    LIG   0.0000
  16 O16          4.5883     4.4833     1.9354 O.3          1    LIG   0.0000
  17 C17          4.8355     5.8351     1.6002 C.3          1    LIG   0.0000
  18 O18          5.4829     5.7089     0.3545 O.3          1    LIG   0.0000
  19 H            1.5420     2.8197     1.8961 H            1    LIG   0.0000
  20 H            3.7233     1.7085     4.0967 H            1    LIG   0.0000
  21 H            0.4959     0.8739    -0.9217 H            1    LIG   0.0000
  22 H            1.3178     0.0532     1.0516 H            1    LIG   0.0000
  23 H            0.0532     1.0516     1.3178 H            1    LIG   0.0000
  24 H            1.4995     1.9173     3.9339 H            1    LIG   0.0000
  25 H            1.3183     0.4318     3.2803 H            1    LIG   0.0000
  26 H            2.9790    -0.1279     5.2356 H            1    LIG   0.0000
  27 H            4.9548     1.0155     2.2892 H            1    LIG   0.0000
  28 H            3.8436    -0.0997     1.8554 H            1    LIG   0.0000
  29 H            4.3736     2.6200    -2.8299 H            1    LIG   0.0000
  30 H            5.3390     4.7222    -2.2547 H            1    LIG   0.0000
  31 H            5.4274     6.2754     2.2753 H            1    LIG   0.0000
  32 H            3.9831     6.3514     1.5170 H            1    LIG   0.0000
@<TRIPOS>BOND
   1        1        2 1
   2        2        3 1
   3        3        4 1
   4        4        5 1
   5        5        6 1
   6        5        7 1
   7        7        8 1
   8        8        3 1
   9        8        9 1
  10        9       10 ar
  11       10       11 1
  12       10       12 ar
  13       12       13 ar
  14       13       14 ar
  15       14       15 ar
  16       15        9 ar
  17       15       16 1
  18       16       17 1
  19       17       18 1
  20       18       14 1
  21        3       19 1
  22        5       20 1
  23        1       21 1
  24        2       22 1
  25        2       23 1
  26        4       24 1
  27        4       25 1
  28        6       26 1
  29        7       27 1
  30        7       28 1
  31       12       29 1
  32       13       30 1
  33       17       31 1
  34       17       32 1

@<TRIPOS>MOLECULE

  32   34
SMALL
USER_CHARGES
@<TRIPOS>ATOM
   1 O1           1.0733     1.4513    -0.3444 O.3          1    LIG   0.0000
   2 C2           1.0000     1.0000     1.0000 C.3          1    LIG   0.0000
   3 C3           1.8781     1.8781     1.8781 C.3          1    LIG   0.0000
   4 C4           1.8688     1.2666     3.2704 C.3          1    LIG   0.0000
   5 C5           3.3133     0.9489     3.5918 C.3          1    LIG   0.0000
   6 O6           3.4255    -0.2504     4.3492 O.3          1    LIG   0.0000
   7 C7           3.9764     0.8162     2.2343 C.3          1    LIG   0.0000
   8 N8           3.2750     1.8248     1.4381 N.pl3        1    LIG   0.0000
   9 C9           3.8457     2.6158     0.4308 C.ar         1    LIG   0.0000
  10 C10          3.0366     3.5362    -0.2200 C.ar         1    LIG   0.0000
  11 Br11         1.1486     3.7711     0.2503 Br           1    LIG   0.0000
  12 C12          3.5810     4.3214    -1.2304 C.ar         1    LIG   0.0000
  13 C13          4.9270     4.1705    -1.5549 C.ar         1    LIG   0.0000
  14 C14          5.7279     3.2602    -0.8783 C.ar         1    LIG   0.0000
  15 C15          5.1922     2.4740     0.1124 C.ar         1    LIG   0.0000
  16 O16          6.1760     1.6951     0.5900 O.3          1    LIG   0.0000
  17 C17          7.1957     1.6919    -0.3854 C.3          1    LIG   0.0000
  18 O18          7.0323     2.9660    -0.9647 O.3          1    LIG   0.0000
  19 H            1.5420     2.8197     1.8961 H            1    LIG   0.0000
  20 H            3.7233     1.7085     4.0967 H            1    LIG   0.0000
  21 H            0.4959     0.8739    -0.9217 H            1    LIG   0.0000
  22 H            1.3178     0.0532     1.0516 H            1    LIG   0.0000
  23 H            0.0532     1.0516     1.3178 H            1    LIG   0.0000
  24 H            1.4995     1.9173     3.9339 H            1    LIG   0.0000
  25 H            1.3183     0.4318     3.2803 H            1    LIG   0.0000
  26 H            2.9790    -0.1279     5.2356 H            1    LIG   0.0000
  27 H            4.9548     1.0155     2.2892 H            1    LIG   0.0000
  28 H            3.8436    -0.0997     1.8554 H            1    LIG   0.0000
  29 H            3.0137     4.9854    -1.7175 H            1    LIG   0.0000
  30 H            5.3225     4.7262    -2.2861 H            1    LIG   0.0000
  31 H            7.0566     0.9643    -1.0572 H            1    LIG   0.0000
  32 H            8.0995     1.5928     0.0310 H            1    LIG   0.0000
@<TRIPOS>BOND
   1        1        2 1
   2        2        3 1
   3        3        4 1
   4        4        5 1
   5        5        6 1
   6        5        7 1
   7        7        8 1
   8        8        3 1
   9        8        9 1
  10        9       10 ar
  11       10       11 1
  12       10       12 ar
  13       12       13 ar
  14       13       14 ar
  15       14       15 ar
  16       15        9 ar
  17       15       16 1
  18       16       17 1
  19       17       18 1
  20       18       14 1
  21        3       19 1
  22        5       20 1
  23        1       21 1
  24        2       22 1
  25        2       23 1
  26        4       24 1
  27        4       25 1
  28        6       26 1
  29        7       27 1
  30        7       28 1
  31       12       29 1
  32       13       30 1
  33       17       31 1
  34       17       32 1

@<TRIPOS>MOLECULE

  32   34
SMALL
USER_CHARGES
@<TRIPOS>ATOM
   1 O1           1.0733     1.4513    -0.3444 O.3          1    LIG   0.0000
   2 C2           1.0000     1.0000     1.0000 C.3          1    LIG   0.0000
   3 C3           1.8773     1.8773     1.8773 C.3          1    LIG   0.0000
   4 C4           1.8727     1.4446     3.3314 C.3          1    LIG   0.0000
   5 C5           3.3134     1.0930     3.6682 C.3          1    LIG   0.0000
   6 O6           3.5483    -0.2960     3.4699 O.3          1    LIG   0.0000
   7 C7           4.1024     1.9057     2.6587 C.3          1    LIG   0.0000
   8 N8           3.2838     1.8340     1.4475 N.pl3        1    LIG   0.0000
   9 C9           3.7570     1.7281     0.1342 C.ar         1    LIG   0.0000
  10 C10          3.9893     2.9000    -0.5827 C.ar         1    LIG   0.0000
  11 Br11         3.6492     4.6602     0.2124 Br           1    LIG   0.0000
  12 C12          4.4672     2.7955    -1.8857 C.ar         1    LIG   0.0000
  13 C13          4.6874     1.5307    -2.4223 C.ar         1    LIG   0.0000
  14 C14          4.4350     0.3725    -1.7047 C.ar         1    LIG   0.0000
  15 C15          3.9719     0.4661    -0.4103 C.ar         1    LIG   0.0000
  16 O16          3.8013    -0.7811     0.0569 O.3          1    LIG   0.0000
  17 C17          4.5823    -1.6211    -0.7708 C.3          1    LIG   0.0000
  18 O18          4.5360    -0.9357    -2.0017 O.3          1    LIG   0.0000
  19 H            1.5508     2.8207     1.8199 H            1    LIG   0.0000
  20 H            3.5398     1.3651     4.6034 H            1    LIG   0.0000
  21 H            0.4959     0.8739    -0.9217 H            1    LIG   0.0000
  22 H            1.3178     0.0532     1.0516 H            1    LIG   0.0000
  23 H            0.0532     1.0516     1.3178 H            1    LIG   0.0000
  24 H            1.5515     2.1905     3.9149 H            1    LIG   0.0000
  25 H            1.2824     0.6469     3.4548 H            1    LIG   0.0000
  26 H            3.0241    -0.8217     4.1398 H            1    LIG   0.0000
  27 H            4.2060     2.8522     2.9645 H            1    LIG   0.0000
  28 H            5.0053     1.5046     2.5042 H            1    LIG   0.0000
  29 H            4.6493     3.6160    -2.4274 H            1    LIG   0.0000
  30 H            5.0390     1.4553    -3.3554 H            1    LIG   0.0000
  31 H            4.1802    -2.5335    -0.8466 H            1    LIG   0.0000
  32 H            5.5199    -1.6971    -0.4313 H            1    LIG   0.0000
@<TRIPOS>BOND
   1        1        2 1
   2        2        3 1
   3        3        4 1
   4        4        5 1
   5        5        6 1
   6        5        7 1
   7        7        8 1
   8        8        3 1
   9        8        9 1
  10        9       10 ar
  11       10       11 1
  12       10       12 ar
  13       12       13 ar
  14       13       14 ar
  15       14       15 ar
  16       15        9 ar
  17       15       16 1
  18       16       17 1
  19       17       18 1
  20       18       14 1
  21        3       19 1
  22        5       20 1
  23        1       21 1
  24        2       22 1
  25        2       23 1
  26        4       24 1
  27        4       25 1
  28        6       26 1
  29        7       27 1
  30        7       28 1
  31       12       29 1
  32       13       30 1
  33       17       31 1
  34       17       32 1

@<TRIPOS>MOLECULE

  32   34
SMALL
USER_CHARGES
@<TRIPOS>ATOM
   1 O1           1.0733     1.4513    -0.3444 O.3          1    LIG   0.0000
   2 C2           1.0000     1.0000     1.0000 C.3          1    LIG   0.0000
   3 C3           1.8773     1.8773     1.8773 C.3          1    LIG   0.0000
   4 C4           1.8727     1.4446     3.3314 C.3          1    LIG   0.0000
   5 C5           3.3134     1.0930     3.6682 C.3          1    LIG   0.0000
   6 O6           3.5483    -0.2960     3.4699 O.3          1    LIG   0.0000
   7 C7           4.1024     1.9057     2.6587 C.3          1    LIG   0.0000
   8 N8           3.2838     1.8340     1.4475 N.pl3        1    LIG   0.0000
   9 C9           3.7570     1.7281     0.1342 C.ar         1    LIG   0.0000
  10 C10          3.9725     0.4561    -0.3918 C.ar         1    LIG   0.0000
  11 Br11         3.6406    -1.1537     0.6780 Br           1    LIG   0.0000
  12 C12          4.4353     0.3502    -1.7000 C.ar         1    LIG   0.0000
  13 C13          4.6703     1.5130    -2.4271 C.ar         1    LIG   0.0000
  14 C14          4.4692     2.7727    -1.8859 C.ar         1    LIG   0.0000
  15 C15          4.0009     2.8876    -0.5950 C.ar         1    LIG   0.0000
  16 O16          3.9000     4.1955    -0.3086 O.3          1    LIG   0.0000
  17 C17          3.8652     4.8685    -1.5523 C.3          1    LIG   0.0000
  18 O18          4.6464     4.0187    -2.3613 O.3          1    LIG   0.0000
  19 H            1.5508     2.8207     1.8199 H            1    LIG   0.0000
  20 H            3.5398     1.3651     4.6034 H            1    LIG   0.0000
  21 H            0.4959     0.8739    -0.9217 H            1    LIG   0.0000
  22 H            1.3178     0.0532     1.0516 H            1    LIG   0.0000
  23 H            0.0532     1.0516     1.3178 H            1    LIG   0.0000
  24 H            1.5515     2.1905     3.9149 H            1    LIG   0.0000
  25 H            1.2824     0.6469     3.4548 H            1    LIG   0.0000
  26 H            3.0241    -0.8217     4.1398 H            1    LIG   0.0000
  27 H            4.2060     2.8522     2.9645 H            1    LIG   0.0000
  28 H            5.0053     1.5046     2.5042 H            1    LIG   0.0000
  29 H            4.5964    -0.5472    -2.1109 H            1    LIG   0.0000
  30 H            4.9946     1.4373    -3.3700 H            1    LIG   0.0000
  31 H            4.2702     5.7803    -1.4844 H            1    LIG   0.0000
  32 H            2.9305     4.9439    -1.8995 H            1    LIG   0.0000
@<TRIPOS>BOND
   1        1        2 1
   2        2        3 1
   3        3        4 1
   4        4        5 1
   5        5        6 1
   6        5        7 1
   7        7        8 1
   8        8        3 1
   9        8        9 1
  10        9       10 ar
  11       10       11 1
  12       10       12 ar
  13       12       13 ar
  14       13       14 ar
  15       14       15 ar
  16       15        9 ar
  17       15       16 1
  18       16       17 1
  19       17       18 1
  20       18       14 1
  21        3       19 1
  22        5       20 1
  23        1       21 1
  24        2       22 1
  25        2       23 1
  26        4       24 1
  27        4       25 1
  28        6       26 1
  29        7       27 1
  30        7       28 1
  31       12       29 1
  32       13       30 1
  33       17       31 1
  34       17       32 1

@<TRIPOS>MOLECULE

  32   34
SMALL
USER_CHARGES
@<TRIPOS>ATOM
   1 O1           1.0733     1.4513    -0.3444 O.3          1    LIG   0.0000
   2 C2           1.0000     1.0000     1.0000 C.3          1    LIG   0.0000
   3 C3           1.8781     1.8781     1.8781 C.3          1    LIG   0.0000
   4 C4           1.9721     1.3414     3.2858 C.3          1    LIG   0.0000
   5 C5           3.2125     2.0335     3.8045 C.3          1    LIG   0.0000
   6 O6           3.7163     1.3149     4.9194 O.3          1    LIG   0.0000
   7 C7           4.1613     1.8455     2.6389 C.3          1    LIG   0.0000
   8 N8           3.2827     1.8421     1.4580 N.pl3        1    LIG   0.0000
   9 C9           3.7189     1.7902     0.1288 C.ar         1    LIG   0.0000
  10 C10          3.9442     2.9905    -0.5418 C.ar         1    LIG   0.0000
  11 Br11         3.6447     4.7168     0.3394 Br           1    LIG   0.0000
  12 C12          4.3854     2.9395    -1.8608 C.ar         1    LIG   0.0000
  13 C13          4.5775     1.6978    -2.4586 C.ar         1    LIG   0.0000
  14 C14          4.3322     0.5113    -1.7862 C.ar         1    LIG   0.0000
  15 C15          3.9054     0.5516    -0.4766 C.ar         1    LIG   0.0000
  16 O16          3.7342    -0.7134    -0.0604 O.3          1    LIG   0.0000
  17 C17          4.4835    -1.5231    -0.9456 C.3          1    LIG   0.0000
  18 O18          4.4112    -0.7833    -2.1433 O.3          1    LIG   0.0000
  19 H            1.5383     2.8185     1.8838 H            1    LIG   0.0000
  20 H            3.0518     2.9981     4.0136 H            1    LIG   0.0000
  21 H            0.4959     0.8739    -0.9217 H            1    LIG   0.0000
  22 H            1.3178     0.0532     1.0516 H            1    LIG   0.0000
  23 H            0.0532     1.0516     1.3178 H            1    LIG   0.0000
  24 H            1.1662     1.5891     3.8236 H            1    LIG   0.0000
  25 H            2.0825     0.3475     3.2891 H            1    LIG   0.0000
  26 H            3.0985     1.4306     5.6973 H            1    LIG   0.0000
  27 H            4.8180     2.5981     2.5906 H            1    LIG   0.0000
  28 H            4.6533     0.9784     2.7178 H            1    LIG   0.0000
  29 H            4.5616     3.7815    -2.3705 H            1    LIG   0.0000
  30 H            4.9028     1.6605    -3.4035 H            1    LIG   0.0000
  31 H            4.0697    -2.4275    -1.0506 H            1    LIG   0.0000
  32 H            5.4290    -1.6231    -0.6358 H            1    LIG   0.0000
@<TRIPOS>BOND
   1        1        2 1
   2        2        3 1
   3        3        4 1
   4        4        5 1
   5        5        6 1
   6        5        7 1
   7        7        8 1
   8        8        3 1
   9        8        9 1
  10        9       10 ar
  11       10       11 1
  12       10       12 ar
  13       12       13 ar
  14       13       14 ar
  15       14       15 ar
  16       15        9 ar
  17       15       16 1
  18       16       17 1
  19       17       18 1
  20       18       14 1
  21        3       19 1
  22        5       20 1
  23        1       21 1
  24        2       22 1
  25        2       23 1
  26        4       24 1
  27        4       25 1
  28        6       26 1
  29        7       27 1
  30        7       28 1
  31       12       29 1
  32       13       30 1
  33       17       31 1
  34       17       32 1

@<TRIPOS>MOLECULE

  32   34
SMALL
USER_CHARGES
@<TRIPOS>ATOM
   1 O1           1.0733     1.4513    -0.3444 O.3          1    LIG   0.0000
   2 C2           1.0000     1.0000     1.0000 C.3          1    LIG   0.0000
   3 C3           1.8781     1.8781     1.8781 C.3          1    LIG   0.0000
   4 C4           1.9721     1.3414     3.2858 C.3          1    LIG   0.0000
   5 C5           3.2125     2.0335     3.8045 C.3          1    LIG   0.0000
   6 O6           3.7163     1.3149     4.9194 O.3          1    LIG   0.0000
   7 C7           4.1613     1.8455     2.6389 C.3          1    LIG   0.0000
   8 N8           3.2827     1.8421     1.4580 N.pl3        1    LIG   0.0000
   9 C9           3.7189     1.7902     0.1288 C.ar         1    LIG   0.0000
  10 C10          3.9064     0.5409    -0.4586 C.ar         1    LIG   0.0000
  11 Br11         3.5864    -1.1117     0.5478 Br           1    LIG   0.0000
  12 C12          4.3324     0.4887    -1.7825 C.ar         1    LIG   0.0000
  13 C13          4.5601     1.6805    -2.4637 C.ar         1    LIG   0.0000
  14 C14          4.3872     2.9167    -1.8620 C.ar         1    LIG   0.0000
  15 C15          3.9554     2.9785    -0.5549 C.ar         1    LIG   0.0000
  16 O16          3.8763     4.2733    -0.2084 O.3          1    LIG   0.0000
  17 C17          3.8150     5.0012    -1.4196 C.3          1    LIG   0.0000
  18 O18          4.5648     4.1809    -2.2866 O.3          1    LIG   0.0000
  19 H            1.5383     2.8185     1.8838 H            1    LIG   0.0000
  20 H            3.0518     2.9981     4.0136 H            1    LIG   0.0000
  21 H            0.4959     0.8739    -0.9217 H            1    LIG   0.0000
  22 H            1.3178     0.0532     1.0516 H            1    LIG   0.0000
  23 H            0.0532     1.0516     1.3178 H            1    LIG   0.0000
  24 H            1.1662     1.5891     3.8236 H            1    LIG   0.0000
  25 H            2.0825     0.3475     3.2891 H            1    LIG   0.0000
  26 H            3.0985     1.4306     5.6973 H            1    LIG   0.0000
  27 H            4.8180     2.5981     2.5906 H            1    LIG   0.0000
  28 H            4.6533     0.9784     2.7178 H            1    LIG   0.0000
  29 H            4.4727    -0.3910    -2.2369 H            1    LIG   0.0000
  30 H            4.8579     1.6436    -3.4176 H            1    LIG   0.0000
  31 H            4.2314     5.9052    -1.3228 H            1    LIG   0.0000
  32 H            2.8720     5.1009    -1.7373 H            1    LIG   0.0000
@<TRIPOS>BOND
   1        1        2 1
   2        2        3 1
   3        3        4 1
   4        4        5 1
   5        5        6 1
   6        5        7 1
   7        7        8 1
   8        8        3 1
   9        8        9 1
  10        9       10 ar
  11       10       11 1
  12       10       12 ar
  13       12       13 ar
  14       13       14 ar
  15       14       15 ar
  16       15        9 ar
  17       15       16 1
  18       16       17 1
  19       17       18 1
  20       18       14 1
  21        3       19 1
  22        5       20 1
  23        1       21 1
  24        2       22 1
  25        2       23 1
  26        4       24 1
  27        4       25 1
  28        6       26 1
  29        7       27 1
  30        7       28 1
  31       12       29 1
  32       13       30 1
  33       17       31 1
  34       17       32 1

@<TRIPOS>MOLECULE

  32   34
SMALL
USER_CHARGES
@<TRIPOS>ATOM
   1 O1           1.0733     1.4513    -0.3444 O.3          1    LIG   0.0000
   2 C2           1.0000     1.0000     1.0000 C.3          1    LIG   0.0000
   3 C3           1.8803     1.8803     1.8803 C.3          1    LIG   0.0000
   4 C4           1.9647     1.3828     3.3113 C.3          1    LIG   0.0000
   5 C5           3.2413     0.5596     3.4108 C.3          1    LIG   0.0000
   6 O6           2.9723    -0.7961     3.7393 O.3          1    LIG   0.0000
   7 C7           3.9308     0.6759     2.0663 C.3          1    LIG   0.0000
   8 N8           3.2743     1.8227     1.4357 N.pl3        1    LIG   0.0000
   9 C9           3.8875     2.7174     0.5475 C.ar         1    LIG   0.0000
  10 C10          4.5041     3.8473     1.0883 C.ar         1    LIG   0.0000
  11 Br11         4.5306     4.1797     3.0214 Br           1    LIG   0.0000
  12 C12          5.1123     4.7489     0.2160 C.ar         1    LIG   0.0000
  13 C13          5.0632     4.4769    -1.1511 C.ar         1    LIG   0.0000
  14 C14          4.4448     3.3434    -1.6764 C.ar         1    LIG   0.0000
  15 C15          3.8555     2.4442    -0.8222 C.ar         1    LIG   0.0000
  16 O16          3.3716     1.4347    -1.5691 O.3          1    LIG   0.0000
  17 C17          3.2194     1.9437    -2.8776 C.3          1    LIG   0.0000
  18 O18          4.2660     2.8910    -2.9313 O.3          1    LIG   0.0000
  19 H            1.5514     2.8245     1.8624 H            1    LIG   0.0000
  20 H            3.8307     0.9553     4.1151 H            1    LIG   0.0000
  21 H            0.4959     0.8739    -0.9217 H            1    LIG   0.0000
  22 H            1.3178     0.0532     1.0516 H            1    LIG   0.0000
  23 H            0.0532     1.0516     1.3178 H            1    LIG   0.0000
  24 H            2.0028     2.1563     3.9439 H            1    LIG   0.0000
  25 H            1.1703     0.8148     3.5266 H            1    LIG   0.0000
  26 H            2.5184    -0.8396     4.6293 H            1    LIG   0.0000
  27 H            4.9097     0.8446     2.1812 H            1    LIG   0.0000
  28 H            3.7969    -0.1537     1.5242 H            1    LIG   0.0000
  29 H            5.5710     5.5679     0.5609 H            1    LIG   0.0000
  30 H            5.4907     5.1238    -1.7825 H            1    LIG   0.0000
  31 H            2.3267     2.3775    -2.9999 H            1    LIG   0.0000
  32 H            3.3388     1.2273    -3.5650 H            1    LIG   0.0000
@<TRIPOS>BOND
   1        1        2 1
   2        2        3 1
   3        3        4 1
   4        4        5 1
   5        5        6 1
   6        5        7 1
   7        7        8 1
   8        8        3 1
   9        8        9 1
  10        9       10 ar
  11       10       11 1
  12       10       12 ar
  13       12       13 ar
  14       13       14 ar
  15       14       15 ar
  16       15        9 ar
  17       15       16 1
  18       16       17 1
  19       17       18 1
  20       18       14 1
  21        3       19 1
  22        5       20 1
  23        1       21 1
  24        2       22 1
  25        2       23 1
  26        4       24 1
  27        4       25 1
  28        6       26 1
  29        7       27 1
  30        7       28 1
  31       12       29 1
  32       13       30 1
  33       17       31 1
  34       17       32 1

@<TRIPOS>MOLECULE

  32   34
SMALL
USER_CHARGES
@<TRIPOS>ATOM
   1 O1           1.0733     1.4513    -0.3444 O.3          1    LIG   0.0000
   2 C2           1.0000     1.0000     1.0000 C.3          1    LIG   0.0000
   3 C3           1.8803     1.8803     1.8803 C.3          1    LIG   0.0000
   4 C4           2.3609     1.1673     3.1305 C.3          1    LIG   0.0000
   5 C5           3.7539     0.6373     2.8205 C.3          1    LIG   0.0000
   6 O6           3.8075    -0.7806     2.8886 O.3          1    LIG   0.0000
   7 C7           4.1024     1.1375     1.4331 C.3          1    LIG   0.0000
   8 N8           3.1317     2.2072     1.1938 N.pl3        1    LIG   0.0000
   9 C9           3.3680     3.3552     0.4283 C.ar         1    LIG   0.0000
  10 C10          2.3386     4.2840     0.2919 C.ar         1    LIG   0.0000
  11 Br11         0.5912     3.9927     1.1334 Br           1    LIG   0.0000
  12 C12          2.5756     5.4292    -0.4626 C.ar         1    LIG   0.0000
  13 C13          3.8233     5.5991    -1.0544 C.ar         1    LIG   0.0000
  14 C14          4.8330     4.6587    -0.9260 C.ar         1    LIG   0.0000
  15 C15          4.6113     3.5267    -0.1721 C.ar         1    LIG   0.0000
  16 O16          5.7273     2.7811    -0.2111 O.3          1    LIG   0.0000
  17 C17          6.7702     3.6549    -0.5977 C.3          1    LIG   0.0000
  18 O18          6.0847     4.5786    -1.4124 O.3          1    LIG   0.0000
  19 H            1.3932     2.7181     2.1268 H            1    LIG   0.0000
  20 H            4.4026     1.0204     3.4781 H            1    LIG   0.0000
  21 H            0.4959     0.8739    -0.9217 H            1    LIG   0.0000
  22 H            1.3178     0.0532     1.0516 H            1    LIG   0.0000
  23 H            0.0532     1.0516     1.3178 H            1    LIG   0.0000
  24 H            2.3979     1.8058     3.8993 H            1    LIG   0.0000
  25 H            1.7460     0.4112     3.3545 H            1    LIG   0.0000
  26 H            3.5733    -1.0790     3.8138 H            1    LIG   0.0000
  27 H            5.0371     1.4920     1.4065 H            1    LIG   0.0000
  28 H            4.0031     0.4083     0.7560 H            1    LIG   0.0000
  29 H            1.8606     6.1189    -0.5774 H            1    LIG   0.0000
  30 H            3.9969     6.4259    -1.5894 H            1    LIG   0.0000
  31 H            7.4787     3.1714    -1.1119 H            1    LIG   0.0000
  32 H            7.1818     4.1041     0.1953 H            1    LIG   0.0000
@<TRIPOS>BOND
   1        1        2 1
   2        2        3 1
   3        3        4 1
   4        4        5 1
   5        5        6 1
   6        5        7 1
   7        7        8 1
   8        8        3 1
   9        8        9 1
  10        9       10 ar
  11       10       11 1
  12       10       12 ar
  13       12       13 ar
  14       13       14 ar
  15       14       15 ar
  16       15        9 ar
  17       15       16 1
  18       16       17 1
  19       17       18 1
  20       18       14 1
  21        3       19 1
  22        5       20 1
  23        1       21 1
  24        2       22 1
  25        2       23 1
  26        4       24 1
  27        4       25 1
  28        6       26 1
  29        7       27 1
  30        7       28 1
  31       12       29 1
  32       13       30 1
  33       17       31 1
  34       17       32 1

@<TRIPOS>MOLECULE

  32   34
SMALL
USER_CHARGES
@<TRIPOS>ATOM
   1 O1           1.0733     1.4513    -0.3444 O.3          1    LIG   0.0000
   2 C2           1.0000     1.0000     1.0000 C.3          1    LIG   0.0000
   3 C3           1.8803     1.8803     1.8803 C.3          1    LIG   0.0000
   4 C4           1.4422     1.8836     3.3330 C.3          1    LIG   0.0000
   5 C5           2.3061     0.8556     4.0500 C.3          1    LIG   0.0000
   6 O6           1.5290    -0.2038     4.5903 O.3          1    LIG   0.0000
   7 C7           3.3008     0.3451     3.0270 C.3          1    LIG   0.0000
   8 N8           3.2391     1.3395     1.9541 N.pl3        1    LIG   0.0000
   9 C9           4.3127     1.7086     1.1312 C.ar         1    LIG   0.0000
  10 C10          4.5099     1.0041    -0.0478 C.ar         1    LIG   0.0000
  11 Br11         3.3215    -0.4556    -0.5937 Br           1    LIG   0.0000
  12 C12          5.5767     1.3469    -0.8713 C.ar         1    LIG   0.0000
  13 C13          6.4125     2.3959    -0.4960 C.ar         1    LIG   0.0000
  14 C14          6.1875     3.1050     0.6764 C.ar         1    LIG   0.0000
  15 C15          5.1423     2.7627     1.4992 C.ar         1    LIG   0.0000
  16 O16          5.1591     3.6007     2.5480 O.3          1    LIG   0.0000
  17 C17          6.4507     4.1673     2.5893 C.3          1    LIG   0.0000
  18 O18          6.8020     4.1620     1.2247 O.3          1    LIG   0.0000
  19 H            1.8998     2.8144     1.5239 H            1    LIG   0.0000
  20 H            2.8028     1.3069     4.7914 H            1    LIG   0.0000
  21 H            0.4959     0.8739    -0.9217 H            1    LIG   0.0000
  22 H            1.3178     0.0532     1.0516 H            1    LIG   0.0000
  23 H            0.0532     1.0516     1.3178 H            1    LIG   0.0000
  24 H            1.5803     2.7896     3.7331 H            1    LIG   0.0000
  25 H            0.4768     1.6320     3.4029 H            1    LIG   0.0000
  26 H            0.8840     0.1639     5.2602 H            1    LIG   0.0000
  27 H            4.2205     0.2982     3.4169 H            1    LIG   0.0000
  28 H            3.0347    -0.5584     2.6912 H            1    LIG   0.0000
  29 H            5.7415     0.8471    -1.7216 H            1    LIG   0.0000
  30 H            7.1863     2.6420    -1.0797 H            1    LIG   0.0000
  31 H            7.0783     3.6076     3.1304 H            1    LIG   0.0000
  32 H            6.4305     5.0967     2.9579 H            1    LIG   0.0000
@<TRIPOS>BOND
   1        1        2 1
   2        2        3 1
   3        3        4 1
   4        4        5 1
   5        5        6 1
   6        5        7 1
   7        7        8 1
   8        8        3 1
   9        8        9 1
  10        9       10 ar
  11       10       11 1
  12       10       12 ar
  13       12       13 ar
  14       13       14 ar
  15       14       15 ar
  16       15        9 ar
  17       15       16 1
  18       16       17 1
  19       17       18 1
  20       18       14 1
  21        3       19 1
  22        5       20 1
  23        1       21 1
  24        2       22 1
  25        2       23 1
  26        4       24 1
  27        4       25 1
  28        6       26 1
  29        7       27 1
  30        7       28 1
  31       12       29 1
  32       13       30 1
  33       17       31 1
  34       17       32 1

@<TRIPOS>MOLECULE

  32   34
SMALL
USER_CHARGES
@<TRIPOS>ATOM
   1 O1           1.0733     1.4513    -0.3444 O.3          1    LIG   0.0000
   2 C2           1.0000     1.0000     1.0000 C.3          1    LIG   0.0000
   3 C3           1.8785     1.8785     1.8785 C.3          1    LIG   0.0000
   4 C4           1.9654     1.2671     3.2563 C.3          1    LIG   0.0000
   5 C5           3.2483     1.8289     3.8441 C.3          1    LIG   0.0000
   6 O6           3.8727     0.8202     4.6231 O.3          1    LIG   0.0000
   7 C7           4.0864     2.1952     2.6291 C.3          1    LIG   0.0000
   8 N8           3.2816     1.8389     1.4543 N.pl3        1    LIG   0.0000
   9 C9           3.7709     1.5339     0.1786 C.ar         1    LIG   0.0000
  10 C10          3.9433     2.5749    -0.7311 C.ar         1    LIG   0.0000
  11 Br11         3.4989     4.4243    -0.2530 Br           1    LIG   0.0000
  12 C12          4.4372     2.2733    -1.9969 C.ar         1    LIG   0.0000
  13 C13          4.7323     0.9492    -2.3062 C.ar         1    LIG   0.0000
  14 C14          4.5390    -0.0795    -1.3981 C.ar         1    LIG   0.0000
  15 C15          4.0605     0.2107    -0.1389 C.ar         1    LIG   0.0000
  16 O16          3.9560    -0.9442     0.5379 O.3          1    LIG   0.0000
  17 C17          4.7897    -1.8694    -0.1326 C.3          1    LIG   0.0000
  18 O18          4.7154    -1.4116    -1.4637 O.3          1    LIG   0.0000
  19 H            1.5348     2.8169     1.9164 H            1    LIG   0.0000
  20 H            3.0582     2.6382     4.3999 H            1    LIG   0.0000
  21 H            0.4959     0.8739    -0.9217 H            1    LIG   0.0000
  22 H            1.3178     0.0532     1.0516 H            1    LIG   0.0000
  23 H            0.0532     1.0516     1.3178 H            1    LIG   0.0000
  24 H            1.1769     1.5328     3.8109 H            1    LIG   0.0000
  25 H            2.0109     0.2698     3.1978 H            1    LIG   0.0000
  26 H            3.2969     0.6037     5.4116 H            1    LIG   0.0000
  27 H            4.2861     3.1751     2.6283 H            1    LIG   0.0000
  28 H            4.9436     1.6803     2.6312 H            1    LIG   0.0000
  29 H            4.5777     2.9965    -2.6731 H            1    LIG   0.0000
  30 H            5.0953     0.7331    -3.2126 H            1    LIG   0.0000
  31 H            4.4398    -2.8025    -0.0484 H            1    LIG   0.0000
  32 H            5.7271    -1.8324     0.2135 H            1    LIG   0.0000
@<TRIPOS>BOND
   1        1        2 1
   2        2        3 1
   3        3        4 1
   4        4        5 1
   5        5        6 1
   6        5        7 1
   7        7        8 1
   8        8        3 1
   9        8        9 1
  10        9       10 ar
  11       10       11 1
  12       10       12 ar
  13       12       13 ar
  14       13       14 ar
  15       14       15 ar
  16       15        9 ar
  17       15       16 1
  18       16       17 1
  19       17       18 1
  20       18       14 1
  21        3       19 1
  22        5       20 1
  23        1       21 1
  24        2       22 1
  25        2       23 1
  26        4       24 1
  27        4       25 1
  28        6       26 1
  29        7       27 1
  30        7       28 1
  31       12       29 1
  32       13       30 1
  33       17       31 1
  34       17       32 1

@<TRIPOS>MOLECULE

  32   34
SMALL
USER_CHARGES
@<TRIPOS>ATOM
   1 O1           1.0733     1.4513    -0.3444 O.3          1    LIG   0.0000
   2 C2           1.0000     1.0000     1.0000 C.3          1    LIG   0.0000
   3 C3           1.8785     1.8785     1.8785 C.3          1    LIG   0.0000
   4 C4           1.9654     1.2671     3.2563 C.3          1    LIG   0.0000
   5 C5           3.2483     1.8289     3.8441 C.3          1    LIG   0.0000
   6 O6           3.8727     0.8202     4.6231 O.3          1    LIG   0.0000
   7 C7           4.0864     2.1952     2.6291 C.3          1    LIG   0.0000
   8 N8           3.2816     1.8389     1.4543 N.pl3        1    LIG   0.0000
   9 C9           3.7709     1.5339     0.1786 C.ar         1    LIG   0.0000
  10 C10          4.0615     0.2042    -0.1189 C.ar         1    LIG   0.0000
  11 Br11         3.8112    -1.2120     1.2145 Br           1    LIG   0.0000
  12 C12          4.5405    -0.1006    -1.3896 C.ar         1    LIG   0.0000
  13 C13          4.7162     0.9300    -2.3078 C.ar         1    LIG   0.0000
  14 C14          4.4406     2.2510    -1.9931 C.ar         1    LIG   0.0000
  15 C15          3.9558     2.5613    -0.7411 C.ar         1    LIG   0.0000
  16 O16          3.7796     3.8912    -0.6859 O.3          1    LIG   0.0000
  17 C17          3.7176     4.3354    -2.0274 C.3          1    LIG   0.0000
  18 O18          4.5518     3.4037    -2.6778 O.3          1    LIG   0.0000
  19 H            1.5348     2.8169     1.9164 H            1    LIG   0.0000
  20 H            3.0582     2.6382     4.3999 H            1    LIG   0.0000
  21 H            0.4959     0.8739    -0.9217 H            1    LIG   0.0000
  22 H            1.3178     0.0532     1.0516 H            1    LIG   0.0000
  23 H            0.0532     1.0516     1.3178 H            1    LIG   0.0000
  24 H            1.1769     1.5328     3.8109 H            1    LIG   0.0000
  25 H            2.0109     0.2698     3.1978 H            1    LIG   0.0000
  26 H            3.2969     0.6037     5.4116 H            1    LIG   0.0000
  27 H            4.2861     3.1751     2.6283 H            1    LIG   0.0000
  28 H            4.9436     1.6803     2.6312 H            1    LIG   0.0000
  29 H            4.7549    -1.0451    -1.6387 H            1    LIG   0.0000
  30 H            5.0521     0.7104    -3.2237 H            1    LIG   0.0000
  31 H            4.0704     5.2665    -2.1194 H            1    LIG   0.0000
  32 H            2.7831     4.2965    -2.3811 H            1    LIG   0.0000
@<TRIPOS>BOND
   1        1        2 1
   2        2        3 1
   3        3        4 1
   4        4        5 1
   5        5        6 1
   6        5        7 1
   7        7        8 1
   8        8        3 1
   9        8        9 1
  10        9       10 ar
  11       10       11 1
  12       10       12 ar
  13       12       13 ar
  14       13       14 ar
  15       14       15 ar
  16       15        9 ar
  17       15       16 1
  18       16       17 1
  19       17       18 1
  20       18       14 1
  21        3       19 1
  22        5       20 1
  23        1       21 1
  24        2       22 1
  25        2       23 1
  26        4       24 1
  27        4       25 1
  28        6       26 1
  29        7       27 1
  30        7       28 1
  31       12       29 1
  32       13       30 1
  33       17       31 1
  34       17       32 1

@<TRIPOS>MOLECULE

  32   34
SMALL
USER_CHARGES
@<TRIPOS>ATOM
   1 O1           1.0733     1.4513    -0.3444 O.3          1    LIG   0.0000
   2 C2           1.0000     1.0000     1.0000 C.3          1    LIG   0.0000
   3 C3           1.8785     1.8785     1.8785 C.3          1    LIG   0.0000
   4 C4           2.5661     1.0144     2.9083 C.3          1    LIG   0.0000
   5 C5           3.7933     1.8103     3.3178 C.3          1    LIG   0.0000
   6 O6           4.8677     0.9097     3.5386 O.3          1    LIG   0.0000
   7 C7           4.0621     2.7197     2.1289 C.3          1    LIG   0.0000
   8 N8           3.0246     2.4137     1.1366 N.pl3        1    LIG   0.0000
   9 C9           3.1195     2.6106    -0.2482 C.ar         1    LIG   0.0000
  10 C10          2.7143     3.8462    -0.7564 C.ar         1    LIG   0.0000
  11 Br11         2.0448     5.2713     0.4137 Br           1    LIG   0.0000
  12 C12          2.7971     4.0536    -2.1326 C.ar         1    LIG   0.0000
  13 C13          3.2721     3.0107    -2.9277 C.ar         1    LIG   0.0000
  14 C14          3.6744     1.7824    -2.4056 C.ar         1    LIG   0.0000
  15 C15          3.6082     1.5759    -1.0496 C.ar         1    LIG   0.0000
  16 O16          4.0840     0.3410    -0.8052 O.3          1    LIG   0.0000
  17 C17          3.9707    -0.3772    -2.0159 C.3          1    LIG   0.0000
  18 O18          4.1422     0.6525    -2.9676 O.3          1    LIG   0.0000
  19 H            1.3492     2.6092     2.3097 H            1    LIG   0.0000
  20 H            3.6079     2.3483     4.1401 H            1    LIG   0.0000
  21 H            0.4959     0.8739    -0.9217 H            1    LIG   0.0000
  22 H            1.3178     0.0532     1.0516 H            1    LIG   0.0000
  23 H            0.0532     1.0516     1.3178 H            1    LIG   0.0000
  24 H            1.9680     0.8583     3.6943 H            1    LIG   0.0000
  25 H            2.8314     0.1357     2.5115 H            1    LIG   0.0000
  26 H            4.6590     0.3283     4.3250 H            1    LIG   0.0000
  27 H            4.0046     3.6788     2.4060 H            1    LIG   0.0000
  28 H            4.9691     2.5361     1.7500 H            1    LIG   0.0000
  29 H            2.5237     4.9257    -2.5383 H            1    LIG   0.0000
  30 H            3.3264     3.1503    -3.9164 H            1    LIG   0.0000
  31 H            3.0730    -0.8094    -2.1022 H            1    LIG   0.0000
  32 H            4.6846    -1.0728    -2.0968 H            1    LIG   0.0000
@<TRIPOS>BOND
   1        1        2 1
   2        2        3 1
   3        3        4 1
   4        4        5 1
   5        5        6 1
   6        5        7 1
   7        7        8 1
   8        8        3 1
   9        8        9 1
  10        9       10 ar
  11       10       11 1
  12       10       12 ar
  13       12       13 ar
  14       13       14 ar
  15       14       15 ar
  16       15        9 ar
  17       15       16 1
  18       16       17 1
  19       17       18 1
  20       18       14 1
  21        3       19 1
  22        5       20 1
  23        1       21 1
  24        2       22 1
  25        2       23 1
  26        4       24 1
  27        4       25 1
  28        6       26 1
  29        7       27 1
  30        7       28 1
  31       12       29 1
  32       13       30 1
  33       17       31 1
  34       17       32 1

