@<TRIPOS>MOLECULE
*****
 32 34 0 0 0
SMALL
USER_CHARGES

@<TRIPOS>ATOM
      1 O1          1.0733    1.4513   -0.3444 O.3     1  LIG1        0.0000
      2 C2          1.0000    1.0000    1.0000 C.3     1  LIG1        0.0000
      3 C3          1.8785    1.8785    1.8785 C.3     1  LIG1        0.0000
      4 C4          2.5661    1.0144    2.9083 C.3     1  LIG1        0.0000
      5 C5          3.7933    1.8103    3.3178 C.3     1  LIG1        0.0000
      6 O6          4.8677    0.9097    3.5386 O.3     1  LIG1        0.0000
      7 C7          4.0621    2.7197    2.1289 C.3     1  LIG1        0.0000
      8 N8          3.0246    2.4137    1.1366 N.pl3   1  LIG1        0.0000
      9 C9          3.1195    2.6106   -0.2482 C.ar    1  LIG1        0.0000
     10 C10         2.7143    3.8462   -0.7564 C.ar    1  LIG1        0.0000
     11 Br11        2.0448    5.2713    0.4137 Br      1  LIG1        0.0000
     12 C12         2.7971    4.0536   -2.1326 C.ar    1  LIG1        0.0000
     13 C13         3.2721    3.0107   -2.9277 C.ar    1  LIG1        0.0000
     14 C14         3.6744    1.7824   -2.4056 C.ar    1  LIG1        0.0000
     15 C15         3.6082    1.5759   -1.0496 C.ar    1  LIG1        0.0000
     16 O16         4.0840    0.3410   -0.8052 O.3     1  LIG1        0.0000
     17 C17         3.9707   -0.3772   -2.0159 C.3     1  LIG1        0.0000
     18 O18         4.1422    0.6525   -2.9676 O.3     1  LIG1        0.0000
     19 H           1.3492    2.6092    2.3097 H       1  LIG1        0.0000
     20 H           3.6079    2.3483    4.1401 H       1  LIG1        0.0000
     21 H           0.4959    0.8739   -0.9217 H       1  LIG1        0.0000
     22 H           1.3178    0.0532    1.0516 H       1  LIG1        0.0000
     23 H           0.0532    1.0516    1.3178 H       1  LIG1        0.0000
     24 H           1.9680    0.8583    3.6943 H       1  LIG1        0.0000
     25 H           2.8314    0.1357    2.5115 H       1  LIG1        0.0000
     26 H           4.6590    0.3283    4.3250 H       1  LIG1        0.0000
     27 H           4.0046    3.6788    2.4060 H       1  LIG1        0.0000
     28 H           4.9691    2.5361    1.7500 H       1  LIG1        0.0000
     29 H           2.5237    4.9257   -2.5383 H       1  LIG1        0.0000
     30 H           3.3264    3.1503   -3.9164 H       1  LIG1        0.0000
     31 H           3.0730   -0.8094   -2.1022 H       1  LIG1        0.0000
     32 H           4.6846   -1.0728   -2.0968 H       1  LIG1        0.0000
@<TRIPOS>BOND
     1     1     2    1
     2     2     3    1
     3     3     4    1
     4     4     5    1
     5     5     6    1
     6     5     7    1
     7     7     8    1
     8     8     3    1
     9     8     9    1
    10     9    10   ar
    11    10    11    1
    12    10    12   ar
    13    12    13   ar
    14    13    14   ar
    15    14    15   ar
    16    15     9   ar
    17    15    16    1
    18    16    17    1
    19    17    18    1
    20    18    14    1
    21     3    19    1
    22     5    20    1
    23     1    21    1
    24     2    22    1
    25     2    23    1
    26     4    24    1
    27     4    25    1
    28     6    26    1
    29     7    27    1
    30     7    28    1
    31    12    29    1
    32    13    30    1
    33    17    31    1
    34    17    32    1
