@<TRIPOS>MOLECULE
*****
 32 34 0 0 0
SMALL
USER_CHARGES

@<TRIPOS>ATOM
      1 O1          1.0733    1.4513   -0.3444 O.3     1  LIG1        0.0000
      2 C2          1.0000    1.0000    1.0000 C.3     1  LIG1        0.0000
      3 C3          1.8773    1.8773    1.8773 C.3     1  LIG1        0.0000
      4 C4          1.8727    1.4446    3.3314 C.3     1  LIG1        0.0000
      5 C5          3.3134    1.0930    3.6682 C.3     1  LIG1        0.0000
      6 O6          3.5483   -0.2960    3.4699 O.3     1  LIG1        0.0000
      7 C7          4.1024    1.9057    2.6587 C.3     1  LIG1        0.0000
      8 N8          3.2838    1.8340    1.4475 N.pl3   1  LIG1        0.0000
      9 C9          3.7570    1.7281    0.1342 C.ar    1  LIG1        0.0000
     10 C10         3.9725    0.4561   -0.3918 C.ar    1  LIG1        0.0000
     11 Br11        3.6406   -1.1537    0.6780 Br      1  LIG1        0.0000
     12 C12         4.4353    0.3502   -1.7000 C.ar    1  LIG1        0.0000
     13 C13         4.6703    1.5130   -2.4271 C.ar    1  LIG1        0.0000
     14 C14         4.4692    2.7727   -1.8859 C.ar    1  LIG1        0.0000
     15 C15         4.0009    2.8876   -0.5950 C.ar    1  LIG1        0.0000
     16 O16         3.9000    4.1955   -0.3086 O.3     1  LIG1        0.0000
     17 C17         3.8652    4.8685   -1.5523 C.3     1  LIG1        0.0000
     18 O18         4.6464    4.0187   -2.3613 O.3     1  LIG1        0.0000
     19 H           1.5508    2.8207    1.8199 H       1  LIG1        0.0000
     20 H           3.5398    1.3651    4.6034 H       1  LIG1        0.0000
     21 H           0.4959    0.8739   -0.9217 H       1  LIG1        0.0000
     22 H           1.3178    0.0532    1.0516 H       1  LIG1        0.0000
     23 H           0.0532    1.0516    1.3178 H       1  LIG1        0.0000
     24 H           1.5515    2.1905    3.9149 H       1  LIG1        0.0000
     25 H           1.2824    0.6469    3.4548 H       1  LIG1        0.0000
     26 H           3.0241   -0.8217    4.1398 H       1  LIG1        0.0000
     27 H           4.2060    2.8522    2.9645 H       1  LIG1        0.0000
     28 H           5.0053    1.5046    2.5042 H       1  LIG1        0.0000
     29 H           4.5964   -0.5472   -2.1109 H       1  LIG1        0.0000
     30 H           4.9946    1.4373   -3.3700 H       1  LIG1        0.0000
     31 H           4.2702    5.7803   -1.4844 H       1  LIG1        0.0000
     32 H           2.9305    4.9439   -1.8995 H       1  LIG1        0.0000
@<TRIPOS>BOND
     1     1     2    1
     2     2     3    1
     3     3     4    1
     4     4     5    1
     5     5     6    1
     6     5     7    1
     7     7     8    1
     8     8     3    1
     9     8     9    1
    10     9    10   ar
    11    10    11    1
    12    10    12   ar
    13    12    13   ar
    14    13    14   ar
    15    14    15   ar
    16    15     9   ar
    17    15    16    1
    18    16    17    1
    19    17    18    1
    20    18    14    1
    21     3    19    1
    22     5    20    1
    23     1    21    1
    24     2    22    1
    25     2    23    1
    26     4    24    1
    27     4    25    1
    28     6    26    1
    29     7    27    1
    30     7    28    1
    31    12    29    1
    32    13    30    1
    33    17    31    1
    34    17    32    1
