@<TRIPOS>MOLECULE
*****
 32 34 0 0 0
SMALL
USER_CHARGES

@<TRIPOS>ATOM
      1 O1          1.0733    1.4513   -0.3444 O.3     1  LIG1        0.0000
      2 C2          1.0000    1.0000    1.0000 C.3     1  LIG1        0.0000
      3 C3          1.8781    1.8781    1.8781 C.3     1  LIG1        0.0000
      4 C4          1.9721    1.3414    3.2858 C.3     1  LIG1        0.0000
      5 C5          3.2125    2.0335    3.8045 C.3     1  LIG1        0.0000
      6 O6          3.7163    1.3149    4.9194 O.3     1  LIG1        0.0000
      7 C7          4.1613    1.8455    2.6389 C.3     1  LIG1        0.0000
      8 N8          3.2827    1.8421    1.4580 N.pl3   1  LIG1        0.0000
      9 C9          3.7189    1.7902    0.1288 C.ar    1  LIG1        0.0000
     10 C10         3.9442    2.9905   -0.5418 C.ar    1  LIG1        0.0000
     11 Br11        3.6447    4.7168    0.3394 Br      1  LIG1        0.0000
     12 C12         4.3854    2.9395   -1.8608 C.ar    1  LIG1        0.0000
     13 C13         4.5775    1.6978   -2.4586 C.ar    1  LIG1        0.0000
     14 C14         4.3322    0.5113   -1.7862 C.ar    1  LIG1        0.0000
     15 C15         3.9054    0.5516   -0.4766 C.ar    1  LIG1        0.0000
     16 O16         3.7342   -0.7134   -0.0604 O.3     1  LIG1        0.0000
     17 C17         4.4835   -1.5231   -0.9456 C.3     1  LIG1        0.0000
     18 O18         4.4112   -0.7833   -2.1433 O.3     1  LIG1        0.0000
     19 H           1.5383    2.8185    1.8838 H       1  LIG1        0.0000
     20 H           3.0518    2.9981    4.0136 H       1  LIG1        0.0000
     21 H           0.4959    0.8739   -0.9217 H       1  LIG1        0.0000
     22 H           1.3178    0.0532    1.0516 H       1  LIG1        0.0000
     23 H           0.0532    1.0516    1.3178 H       1  LIG1        0.0000
     24 H           1.1662    1.5891    3.8236 H       1  LIG1        0.0000
     25 H           2.0825    0.3475    3.2891 H       1  LIG1        0.0000
     26 H           3.0985    1.4306    5.6973 H       1  LIG1        0.0000
     27 H           4.8180    2.5981    2.5906 H       1  LIG1        0.0000
     28 H           4.6533    0.9784    2.7178 H       1  LIG1        0.0000
     29 H           4.5616    3.7815   -2.3705 H       1  LIG1        0.0000
     30 H           4.9028    1.6605   -3.4035 H       1  LIG1        0.0000
     31 H           4.0697   -2.4275   -1.0506 H       1  LIG1        0.0000
     32 H           5.4290   -1.6231   -0.6358 H       1  LIG1        0.0000
@<TRIPOS>BOND
     1     1     2    1
     2     2     3    1
     3     3     4    1
     4     4     5    1
     5     5     6    1
     6     5     7    1
     7     7     8    1
     8     8     3    1
     9     8     9    1
    10     9    10   ar
    11    10    11    1
    12    10    12   ar
    13    12    13   ar
    14    13    14   ar
    15    14    15   ar
    16    15     9   ar
    17    15    16    1
    18    16    17    1
    19    17    18    1
    20    18    14    1
    21     3    19    1
    22     5    20    1
    23     1    21    1
    24     2    22    1
    25     2    23    1
    26     4    24    1
    27     4    25    1
    28     6    26    1
    29     7    27    1
    30     7    28    1
    31    12    29    1
    32    13    30    1
    33    17    31    1
    34    17    32    1
