@<TRIPOS>MOLECULE
*****
 32 34 0 0 0
SMALL
USER_CHARGES

@<TRIPOS>ATOM
      1 O1          1.0733    1.4513   -0.3444 O.3     1  LIG1        0.0000
      2 C2          1.0000    1.0000    1.0000 C.3     1  LIG1        0.0000
      3 C3          1.8803    1.8803    1.8803 C.3     1  LIG1        0.0000
      4 C4          1.9647    1.3828    3.3113 C.3     1  LIG1        0.0000
      5 C5          3.2413    0.5596    3.4108 C.3     1  LIG1        0.0000
      6 O6          2.9723   -0.7961    3.7393 O.3     1  LIG1        0.0000
      7 C7          3.9308    0.6759    2.0663 C.3     1  LIG1        0.0000
      8 N8          3.2743    1.8227    1.4357 N.pl3   1  LIG1        0.0000
      9 C9          3.8875    2.7174    0.5475 C.ar    1  LIG1        0.0000
     10 C10         4.5041    3.8473    1.0883 C.ar    1  LIG1        0.0000
     11 Br11        4.5306    4.1797    3.0214 Br      1  LIG1        0.0000
     12 C12         5.1123    4.7489    0.2160 C.ar    1  LIG1        0.0000
     13 C13         5.0632    4.4769   -1.1511 C.ar    1  LIG1        0.0000
     14 C14         4.4448    3.3434   -1.6764 C.ar    1  LIG1        0.0000
     15 C15         3.8555    2.4442   -0.8222 C.ar    1  LIG1        0.0000
     16 O16         3.3716    1.4347   -1.5691 O.3     1  LIG1        0.0000
     17 C17         3.2194    1.9437   -2.8776 C.3     1  LIG1        0.0000
     18 O18         4.2660    2.8910   -2.9313 O.3     1  LIG1        0.0000
     19 H           1.5514    2.8245    1.8624 H       1  LIG1        0.0000
     20 H           3.8307    0.9553    4.1151 H       1  LIG1        0.0000
     21 H           0.4959    0.8739   -0.9217 H       1  LIG1        0.0000
     22 H           1.3178    0.0532    1.0516 H       1  LIG1        0.0000
     23 H           0.0532    1.0516    1.3178 H       1  LIG1        0.0000
     24 H           2.0028    2.1563    3.9439 H       1  LIG1        0.0000
     25 H           1.1703    0.8148    3.5266 H       1  LIG1        0.0000
     26 H           2.5184   -0.8396    4.6293 H       1  LIG1        0.0000
     27 H           4.9097    0.8446    2.1812 H       1  LIG1        0.0000
     28 H           3.7969   -0.1537    1.5242 H       1  LIG1        0.0000
     29 H           5.5710    5.5679    0.5609 H       1  LIG1        0.0000
     30 H           5.4907    5.1238   -1.7825 H       1  LIG1        0.0000
     31 H           2.3267    2.3775   -2.9999 H       1  LIG1        0.0000
     32 H           3.3388    1.2273   -3.5650 H       1  LIG1        0.0000
@<TRIPOS>BOND
     1     1     2    1
     2     2     3    1
     3     3     4    1
     4     4     5    1
     5     5     6    1
     6     5     7    1
     7     7     8    1
     8     8     3    1
     9     8     9    1
    10     9    10   ar
    11    10    11    1
    12    10    12   ar
    13    12    13   ar
    14    13    14   ar
    15    14    15   ar
    16    15     9   ar
    17    15    16    1
    18    16    17    1
    19    17    18    1
    20    18    14    1
    21     3    19    1
    22     5    20    1
    23     1    21    1
    24     2    22    1
    25     2    23    1
    26     4    24    1
    27     4    25    1
    28     6    26    1
    29     7    27    1
    30     7    28    1
    31    12    29    1
    32    13    30    1
    33    17    31    1
    34    17    32    1
