@<TRIPOS>MOLECULE
*****
 32 34 0 0 0
SMALL
USER_CHARGES

@<TRIPOS>ATOM
      1 O1          1.0733    1.4513   -0.3444 O.3     1  LIG1        0.0000
      2 C2          1.0000    1.0000    1.0000 C.3     1  LIG1        0.0000
      3 C3          1.8803    1.8803    1.8803 C.3     1  LIG1        0.0000
      4 C4          1.4422    1.8836    3.3330 C.3     1  LIG1        0.0000
      5 C5          2.3061    0.8556    4.0500 C.3     1  LIG1        0.0000
      6 O6          1.5290   -0.2038    4.5903 O.3     1  LIG1        0.0000
      7 C7          3.3008    0.3451    3.0270 C.3     1  LIG1        0.0000
      8 N8          3.2391    1.3395    1.9541 N.pl3   1  LIG1        0.0000
      9 C9          4.3127    1.7086    1.1312 C.ar    1  LIG1        0.0000
     10 C10         4.5099    1.0041   -0.0478 C.ar    1  LIG1        0.0000
     11 Br11        3.3215   -0.4556   -0.5937 Br      1  LIG1        0.0000
     12 C12         5.5767    1.3469   -0.8713 C.ar    1  LIG1        0.0000
     13 C13         6.4125    2.3959   -0.4960 C.ar    1  LIG1        0.0000
     14 C14         6.1875    3.1050    0.6764 C.ar    1  LIG1        0.0000
     15 C15         5.1423    2.7627    1.4992 C.ar    1  LIG1        0.0000
     16 O16         5.1591    3.6007    2.5480 O.3     1  LIG1        0.0000
     17 C17         6.4507    4.1673    2.5893 C.3     1  LIG1        0.0000
     18 O18         6.8020    4.1620    1.2247 O.3     1  LIG1        0.0000
     19 H           1.8998    2.8144    1.5239 H       1  LIG1        0.0000
     20 H           2.8028    1.3069    4.7914 H       1  LIG1        0.0000
     21 H           0.4959    0.8739   -0.9217 H       1  LIG1        0.0000
     22 H           1.3178    0.0532    1.0516 H       1  LIG1        0.0000
     23 H           0.0532    1.0516    1.3178 H       1  LIG1        0.0000
     24 H           1.5803    2.7896    3.7331 H       1  LIG1        0.0000
     25 H           0.4768    1.6320    3.4029 H       1  LIG1        0.0000
     26 H           0.8840    0.1639    5.2602 H       1  LIG1        0.0000
     27 H           4.2205    0.2982    3.4169 H       1  LIG1        0.0000
     28 H           3.0347   -0.5584    2.6912 H       1  LIG1        0.0000
     29 H           5.7415    0.8471   -1.7216 H       1  LIG1        0.0000
     30 H           7.1863    2.6420   -1.0797 H       1  LIG1        0.0000
     31 H           7.0783    3.6076    3.1304 H       1  LIG1        0.0000
     32 H           6.4305    5.0967    2.9579 H       1  LIG1        0.0000
@<TRIPOS>BOND
     1     1     2    1
     2     2     3    1
     3     3     4    1
     4     4     5    1
     5     5     6    1
     6     5     7    1
     7     7     8    1
     8     8     3    1
     9     8     9    1
    10     9    10   ar
    11    10    11    1
    12    10    12   ar
    13    12    13   ar
    14    13    14   ar
    15    14    15   ar
    16    15     9   ar
    17    15    16    1
    18    16    17    1
    19    17    18    1
    20    18    14    1
    21     3    19    1
    22     5    20    1
    23     1    21    1
    24     2    22    1
    25     2    23    1
    26     4    24    1
    27     4    25    1
    28     6    26    1
    29     7    27    1
    30     7    28    1
    31    12    29    1
    32    13    30    1
    33    17    31    1
    34    17    32    1
