@<TRIPOS>MOLECULE
*****
 32 34 0 0 0
SMALL
USER_CHARGES

@<TRIPOS>ATOM
      1 O1          1.0733    1.4513   -0.3444 O.3     1  LIG1        0.0000
      2 C2          1.0000    1.0000    1.0000 C.3     1  LIG1        0.0000
      3 C3          1.8803    1.8803    1.8803 C.3     1  LIG1        0.0000
      4 C4          2.3609    1.1673    3.1305 C.3     1  LIG1        0.0000
      5 C5          3.7539    0.6373    2.8205 C.3     1  LIG1        0.0000
      6 O6          3.8075   -0.7806    2.8886 O.3     1  LIG1        0.0000
      7 C7          4.1024    1.1375    1.4331 C.3     1  LIG1        0.0000
      8 N8          3.1317    2.2072    1.1938 N.pl3   1  LIG1        0.0000
      9 C9          3.3680    3.3552    0.4283 C.ar    1  LIG1        0.0000
     10 C10         2.3386    4.2840    0.2919 C.ar    1  LIG1        0.0000
     11 Br11        0.5912    3.9927    1.1334 Br      1  LIG1        0.0000
     12 C12         2.5756    5.4292   -0.4626 C.ar    1  LIG1        0.0000
     13 C13         3.8233    5.5991   -1.0544 C.ar    1  LIG1        0.0000
     14 C14         4.8330    4.6587   -0.9260 C.ar    1  LIG1        0.0000
     15 C15         4.6113    3.5267   -0.1721 C.ar    1  LIG1        0.0000
     16 O16         5.7273    2.7811   -0.2111 O.3     1  LIG1        0.0000
     17 C17         6.7702    3.6549   -0.5977 C.3     1  LIG1        0.0000
     18 O18         6.0847    4.5786   -1.4124 O.3     1  LIG1        0.0000
     19 H           1.3932    2.7181    2.1268 H       1  LIG1        0.0000
     20 H           4.4026    1.0204    3.4781 H       1  LIG1        0.0000
     21 H           0.4959    0.8739   -0.9217 H       1  LIG1        0.0000
     22 H           1.3178    0.0532    1.0516 H       1  LIG1        0.0000
     23 H           0.0532    1.0516    1.3178 H       1  LIG1        0.0000
     24 H           2.3979    1.8058    3.8993 H       1  LIG1        0.0000
     25 H           1.7460    0.4112    3.3545 H       1  LIG1        0.0000
     26 H           3.5733   -1.0790    3.8138 H       1  LIG1        0.0000
     27 H           5.0371    1.4920    1.4065 H       1  LIG1        0.0000
     28 H           4.0031    0.4083    0.7560 H       1  LIG1        0.0000
     29 H           1.8606    6.1189   -0.5774 H       1  LIG1        0.0000
     30 H           3.9969    6.4259   -1.5894 H       1  LIG1        0.0000
     31 H           7.4787    3.1714   -1.1119 H       1  LIG1        0.0000
     32 H           7.1818    4.1041    0.1953 H       1  LIG1        0.0000
@<TRIPOS>BOND
     1     1     2    1
     2     2     3    1
     3     3     4    1
     4     4     5    1
     5     5     6    1
     6     5     7    1
     7     7     8    1
     8     8     3    1
     9     8     9    1
    10     9    10   ar
    11    10    11    1
    12    10    12   ar
    13    12    13   ar
    14    13    14   ar
    15    14    15   ar
    16    15     9   ar
    17    15    16    1
    18    16    17    1
    19    17    18    1
    20    18    14    1
    21     3    19    1
    22     5    20    1
    23     1    21    1
    24     2    22    1
    25     2    23    1
    26     4    24    1
    27     4    25    1
    28     6    26    1
    29     7    27    1
    30     7    28    1
    31    12    29    1
    32    13    30    1
    33    17    31    1
    34    17    32    1
