@<TRIPOS>MOLECULE
*****
 32 34 0 0 0
SMALL
USER_CHARGES

@<TRIPOS>ATOM
      1 O1          1.0733    1.4513   -0.3444 O.3     1  LIG1        0.0000
      2 C2          1.0000    1.0000    1.0000 C.3     1  LIG1        0.0000
      3 C3          1.8781    1.8781    1.8781 C.3     1  LIG1        0.0000
      4 C4          1.8688    1.2666    3.2704 C.3     1  LIG1        0.0000
      5 C5          3.3133    0.9489    3.5918 C.3     1  LIG1        0.0000
      6 O6          3.4255   -0.2504    4.3492 O.3     1  LIG1        0.0000
      7 C7          3.9764    0.8162    2.2343 C.3     1  LIG1        0.0000
      8 N8          3.2750    1.8248    1.4381 N.pl3   1  LIG1        0.0000
      9 C9          3.8457    2.6158    0.4308 C.ar    1  LIG1        0.0000
     10 C10         3.0366    3.5362   -0.2200 C.ar    1  LIG1        0.0000
     11 Br11        1.1486    3.7711    0.2503 Br      1  LIG1        0.0000
     12 C12         3.5810    4.3214   -1.2304 C.ar    1  LIG1        0.0000
     13 C13         4.9270    4.1705   -1.5549 C.ar    1  LIG1        0.0000
     14 C14         5.7279    3.2602   -0.8783 C.ar    1  LIG1        0.0000
     15 C15         5.1922    2.4740    0.1124 C.ar    1  LIG1        0.0000
     16 O16         6.1760    1.6951    0.5900 O.3     1  LIG1        0.0000
     17 C17         7.1957    1.6919   -0.3854 C.3     1  LIG1        0.0000
     18 O18         7.0323    2.9660   -0.9647 O.3     1  LIG1        0.0000
     19 H           1.5420    2.8197    1.8961 H       1  LIG1        0.0000
     20 H           3.7233    1.7085    4.0967 H       1  LIG1        0.0000
     21 H           0.4959    0.8739   -0.9217 H       1  LIG1        0.0000
     22 H           1.3178    0.0532    1.0516 H       1  LIG1        0.0000
     23 H           0.0532    1.0516    1.3178 H       1  LIG1        0.0000
     24 H           1.4995    1.9173    3.9339 H       1  LIG1        0.0000
     25 H           1.3183    0.4318    3.2803 H       1  LIG1        0.0000
     26 H           2.9790   -0.1279    5.2356 H       1  LIG1        0.0000
     27 H           4.9548    1.0155    2.2892 H       1  LIG1        0.0000
     28 H           3.8436   -0.0997    1.8554 H       1  LIG1        0.0000
     29 H           3.0137    4.9854   -1.7175 H       1  LIG1        0.0000
     30 H           5.3225    4.7262   -2.2861 H       1  LIG1        0.0000
     31 H           7.0566    0.9643   -1.0572 H       1  LIG1        0.0000
     32 H           8.0995    1.5928    0.0310 H       1  LIG1        0.0000
@<TRIPOS>BOND
     1     1     2    1
     2     2     3    1
     3     3     4    1
     4     4     5    1
     5     5     6    1
     6     5     7    1
     7     7     8    1
     8     8     3    1
     9     8     9    1
    10     9    10   ar
    11    10    11    1
    12    10    12   ar
    13    12    13   ar
    14    13    14   ar
    15    14    15   ar
    16    15     9   ar
    17    15    16    1
    18    16    17    1
    19    17    18    1
    20    18    14    1
    21     3    19    1
    22     5    20    1
    23     1    21    1
    24     2    22    1
    25     2    23    1
    26     4    24    1
    27     4    25    1
    28     6    26    1
    29     7    27    1
    30     7    28    1
    31    12    29    1
    32    13    30    1
    33    17    31    1
    34    17    32    1
