@<TRIPOS>MOLECULE
*****
 32 34 0 0 0
SMALL
USER_CHARGES

@<TRIPOS>ATOM
      1 O1          1.0733    1.4513   -0.3444 O.3     1  LIG1        0.0000
      2 C2          1.0000    1.0000    1.0000 C.3     1  LIG1        0.0000
      3 C3          1.8785    1.8785    1.8785 C.3     1  LIG1        0.0000
      4 C4          1.9654    1.2671    3.2563 C.3     1  LIG1        0.0000
      5 C5          3.2483    1.8289    3.8441 C.3     1  LIG1        0.0000
      6 O6          3.8727    0.8202    4.6231 O.3     1  LIG1        0.0000
      7 C7          4.0864    2.1952    2.6291 C.3     1  LIG1        0.0000
      8 N8          3.2816    1.8389    1.4543 N.pl3   1  LIG1        0.0000
      9 C9          3.7709    1.5339    0.1786 C.ar    1  LIG1        0.0000
     10 C10         3.9433    2.5749   -0.7311 C.ar    1  LIG1        0.0000
     11 Br11        3.4989    4.4243   -0.2530 Br      1  LIG1        0.0000
     12 C12         4.4372    2.2733   -1.9969 C.ar    1  LIG1        0.0000
     13 C13         4.7323    0.9492   -2.3062 C.ar    1  LIG1        0.0000
     14 C14         4.5390   -0.0795   -1.3981 C.ar    1  LIG1        0.0000
     15 C15         4.0605    0.2107   -0.1389 C.ar    1  LIG1        0.0000
     16 O16         3.9560   -0.9442    0.5379 O.3     1  LIG1        0.0000
     17 C17         4.7897   -1.8694   -0.1326 C.3     1  LIG1        0.0000
     18 O18         4.7154   -1.4116   -1.4637 O.3     1  LIG1        0.0000
     19 H           1.5348    2.8169    1.9164 H       1  LIG1        0.0000
     20 H           3.0582    2.6382    4.3999 H       1  LIG1        0.0000
     21 H           0.4959    0.8739   -0.9217 H       1  LIG1        0.0000
     22 H           1.3178    0.0532    1.0516 H       1  LIG1        0.0000
     23 H           0.0532    1.0516    1.3178 H       1  LIG1        0.0000
     24 H           1.1769    1.5328    3.8109 H       1  LIG1        0.0000
     25 H           2.0109    0.2698    3.1978 H       1  LIG1        0.0000
     26 H           3.2969    0.6037    5.4116 H       1  LIG1        0.0000
     27 H           4.2861    3.1751    2.6283 H       1  LIG1        0.0000
     28 H           4.9436    1.6803    2.6312 H       1  LIG1        0.0000
     29 H           4.5777    2.9965   -2.6731 H       1  LIG1        0.0000
     30 H           5.0953    0.7331   -3.2126 H       1  LIG1        0.0000
     31 H           4.4398   -2.8025   -0.0484 H       1  LIG1        0.0000
     32 H           5.7271   -1.8324    0.2135 H       1  LIG1        0.0000
@<TRIPOS>BOND
     1     1     2    1
     2     2     3    1
     3     3     4    1
     4     4     5    1
     5     5     6    1
     6     5     7    1
     7     7     8    1
     8     8     3    1
     9     8     9    1
    10     9    10   ar
    11    10    11    1
    12    10    12   ar
    13    12    13   ar
    14    13    14   ar
    15    14    15   ar
    16    15     9   ar
    17    15    16    1
    18    16    17    1
    19    17    18    1
    20    18    14    1
    21     3    19    1
    22     5    20    1
    23     1    21    1
    24     2    22    1
    25     2    23    1
    26     4    24    1
    27     4    25    1
    28     6    26    1
    29     7    27    1
    30     7    28    1
    31    12    29    1
    32    13    30    1
    33    17    31    1
    34    17    32    1
