@<TRIPOS>MOLECULE

  30   31
SMALL
USER_CHARGES
@<TRIPOS>ATOM
   1 C1          -0.2135     0.5430     1.7930 C.3          1    LIG   0.0000
   2 C2           1.0000     1.0000     1.0000 C.3          1    LIG   0.0000
   3 C3           1.7930    -0.2135     0.5430 C.3          1    LIG   0.0000
   4 C4           1.8802     1.8802     1.8802 C.3          1    LIG   0.0000
   5 C5           2.3985     1.0389     3.0305 C.3          1    LIG   0.0000
   6 C6           3.1632     1.9495     3.9793 C.3          1    LIG   0.0000
   7 O7           2.2289     2.7779     4.6588 O.3          1    LIG   0.0000
   8 C8           4.1863     2.7603     3.1988 C.ar         1    LIG   0.0000
   9 C9           5.2500     3.3415     3.8816 C.ar         1    LIG   0.0000
  10 C10          6.1926     4.0942     3.1891 C.ar         1    LIG   0.0000
  11 F11          7.2077     4.6412     3.8522 F            1    LIG   0.0000
  12 C12          6.0695     4.2685     1.8148 C.ar         1    LIG   0.0000
  13 C13          5.0031     3.6819     1.1426 C.ar         1    LIG   0.0000
  14 C14          4.0579     2.9217     1.8220 C.ar         1    LIG   0.0000
  15 O15          3.0263     2.3319     1.1844 O.3          1    LIG   0.0000
  16 H            1.3562     2.6579     2.2275 H            1    LIG   0.0000
  17 H            3.6430     1.3855     4.6513 H            1    LIG   0.0000
  18 H           -0.7909    -0.0344     1.2156 H            1    LIG   0.0000
  19 H            0.0871     0.0213     2.5914 H            1    LIG   0.0000
  20 H           -0.7352     1.3414     2.0937 H            1    LIG   0.0000
  21 H            0.6993     1.5217     0.2016 H            1    LIG   0.0000
  22 H            1.2156    -0.7909    -0.0344 H            1    LIG   0.0000
  23 H            2.5914     0.0871     0.0213 H            1    LIG   0.0000
  24 H            2.0937    -0.7352     1.3414 H            1    LIG   0.0000
  25 H            3.0071     0.3264     2.6813 H            1    LIG   0.0000
  26 H            1.6315     0.6154     3.5126 H            1    LIG   0.0000
  27 H            1.5772     2.2062     5.1571 H            1    LIG   0.0000
  28 H            5.3369     3.2180     4.8701 H            1    LIG   0.0000
  29 H            6.7431     4.8119     1.3137 H            1    LIG   0.0000
  30 H            4.9145     3.8088     0.1547 H            1    LIG   0.0000
@<TRIPOS>BOND
   1        1        2 1
   2        2        3 1
   3        2        4 1
   4        4        5 1
   5        5        6 1
   6        6        7 1
   7        6        8 1
   8        8        9 ar
   9        9       10 ar
  10       10       11 1
  11       10       12 ar
  12       12       13 ar
  13       13       14 ar
  14       14        8 ar
  15       14       15 1
  16       15        4 1
  17        4       16 1
  18        6       17 1
  19        1       18 1
  20        1       19 1
  21        1       20 1
  22        2       21 1
  23        3       22 1
  24        3       23 1
  25        3       24 1
  26        5       25 1
  27        5       26 1
  28        7       27 1
  29        9       28 1
  30       12       29 1
  31       13       30 1

@<TRIPOS>MOLECULE

  30   31
SMALL
USER_CHARGES
@<TRIPOS>ATOM
   1 C1          -0.2135     0.5430     1.7930 C.3          1    LIG   0.0000
   2 C2           1.0000     1.0000     1.0000 C.3          1    LIG   0.0000
   3 C3           1.7930    -0.2135     0.5430 C.3          1    LIG   0.0000
   4 C4           1.8802     1.8802     1.8802 C.3          1    LIG   0.0000
   5 C5           2.7772     0.9815     2.7093 C.3          1    LIG   0.0000
   6 C6           3.5560     1.8535     3.6824 C.3          1    LIG   0.0000
   7 O7           2.6602     2.3249     4.6805 O.3          1    LIG   0.0000
   8 C8           4.2243     2.9928     2.9282 C.ar         1    LIG   0.0000
   9 C9           5.2908     3.6609     3.5214 C.ar         1    LIG   0.0000
  10 C10          5.9113     4.7113     2.8533 C.ar         1    LIG   0.0000
  11 F11          6.9328     5.3395     3.4288 F            1    LIG   0.0000
  12 C12          5.4632     5.0956     1.5941 C.ar         1    LIG   0.0000
  13 C13          4.3975     4.4197     1.0104 C.ar         1    LIG   0.0000
  14 C14          3.7729     3.3640     1.6647 C.ar         1    LIG   0.0000
  15 O15          2.7487     2.6865     1.1074 O.3          1    LIG   0.0000
  16 H            1.3149     2.4510     2.4757 H            1    LIG   0.0000
  17 H            4.2628     1.2974     4.1196 H            1    LIG   0.0000
  18 H           -0.7909    -0.0344     1.2156 H            1    LIG   0.0000
  19 H            0.0871     0.0213     2.5914 H            1    LIG   0.0000
  20 H           -0.7352     1.3414     2.0937 H            1    LIG   0.0000
  21 H            0.6993     1.5217     0.2016 H            1    LIG   0.0000
  22 H            1.2156    -0.7909    -0.0344 H            1    LIG   0.0000
  23 H            2.5914     0.0871     0.0213 H            1    LIG   0.0000
  24 H            2.0937    -0.7352     1.3414 H            1    LIG   0.0000
  25 H            3.4117     0.4920     2.1112 H            1    LIG   0.0000
  26 H            2.2210     0.3227     3.2159 H            1    LIG   0.0000
  27 H            2.2445     1.5459     5.1500 H            1    LIG   0.0000
  28 H            5.6112     3.3860     4.4279 H            1    LIG   0.0000
  29 H            5.9043     5.8525     1.1119 H            1    LIG   0.0000
  30 H            4.0751     4.6975     0.1055 H            1    LIG   0.0000
@<TRIPOS>BOND
   1        1        2 1
   2        2        3 1
   3        2        4 1
   4        4        5 1
   5        5        6 1
   6        6        7 1
   7        6        8 1
   8        8        9 ar
   9        9       10 ar
  10       10       11 1
  11       10       12 ar
  12       12       13 ar
  13       13       14 ar
  14       14        8 ar
  15       14       15 1
  16       15        4 1
  17        4       16 1
  18        6       17 1
  19        1       18 1
  20        1       19 1
  21        1       20 1
  22        2       21 1
  23        3       22 1
  24        3       23 1
  25        3       24 1
  26        5       25 1
  27        5       26 1
  28        7       27 1
  29        9       28 1
  30       12       29 1
  31       13       30 1

@<TRIPOS>MOLECULE

  30   31
SMALL
USER_CHARGES
@<TRIPOS>ATOM
   1 C1          -0.2135     0.5430     1.7930 C.3          1    LIG   0.0000
   2 C2           1.0000     1.0000     1.0000 C.3          1    LIG   0.0000
   3 C3           1.7930    -0.2135     0.5430 C.3          1    LIG   0.0000
   4 C4           1.8802     1.8802     1.8802 C.3          1    LIG   0.0000
   5 C5           1.9906     1.2311     3.2463 C.3          1    LIG   0.0000
   6 C6           2.7544     2.1758     4.1617 C.3          1    LIG   0.0000
   7 O7           1.9174     3.2845     4.4637 O.3          1    LIG   0.0000
   8 C8           4.0512     2.6028     3.4914 C.ar         1    LIG   0.0000
   9 C9           5.0775     3.1205     4.2751 C.ar         1    LIG   0.0000
  10 C10          6.2688     3.5251     3.6820 C.ar         1    LIG   0.0000
  11 F11          7.2444     4.0144     4.4423 F            1    LIG   0.0000
  12 C12          6.4323     3.4153     2.3053 C.ar         1    LIG   0.0000
  13 C13          5.4003     2.8951     1.5322 C.ar         1    LIG   0.0000
  14 C14          4.2072     2.4810     2.1134 C.ar         1    LIG   0.0000
  15 O15          3.2019     1.9590     1.3816 O.3          1    LIG   0.0000
  16 H            1.4849     2.7951     1.9616 H            1    LIG   0.0000
  17 H            2.9730     1.6956     5.0112 H            1    LIG   0.0000
  18 H           -0.7909    -0.0344     1.2156 H            1    LIG   0.0000
  19 H            0.0871     0.0213     2.5914 H            1    LIG   0.0000
  20 H           -0.7352     1.3414     2.0937 H            1    LIG   0.0000
  21 H            0.6993     1.5217     0.2016 H            1    LIG   0.0000
  22 H            1.2156    -0.7909    -0.0344 H            1    LIG   0.0000
  23 H            2.5914     0.0871     0.0213 H            1    LIG   0.0000
  24 H            2.0937    -0.7352     1.3414 H            1    LIG   0.0000
  25 H            2.4817     0.3633     3.1699 H            1    LIG   0.0000
  26 H            1.0769     1.0655     3.6172 H            1    LIG   0.0000
  27 H            1.0791     2.9598     4.9016 H            1    LIG   0.0000
  28 H            4.9587     3.2017     5.2647 H            1    LIG   0.0000
  29 H            7.2859     3.7083     1.8745 H            1    LIG   0.0000
  30 H            5.5182     2.8177     0.5422 H            1    LIG   0.0000
@<TRIPOS>BOND
   1        1        2 1
   2        2        3 1
   3        2        4 1
   4        4        5 1
   5        5        6 1
   6        6        7 1
   7        6        8 1
   8        8        9 ar
   9        9       10 ar
  10       10       11 1
  11       10       12 ar
  12       12       13 ar
  13       13       14 ar
  14       14        8 ar
  15       14       15 1
  16       15        4 1
  17        4       16 1
  18        6       17 1
  19        1       18 1
  20        1       19 1
  21        1       20 1
  22        2       21 1
  23        3       22 1
  24        3       23 1
  25        3       24 1
  26        5       25 1
  27        5       26 1
  28        7       27 1
  29        9       28 1
  30       12       29 1
  31       13       30 1

@<TRIPOS>MOLECULE

  30   31
SMALL
USER_CHARGES
@<TRIPOS>ATOM
   1 C1          -0.2135     0.5430     1.7930 C.3          1    LIG   0.0000
   2 C2           1.0000     1.0000     1.0000 C.3          1    LIG   0.0000
   3 C3           1.7930    -0.2135     0.5430 C.3          1    LIG   0.0000
   4 C4           1.8799     1.8799     1.8799 C.3          1    LIG   0.0000
   5 C5           2.1589     1.2859     3.2532 C.3          1    LIG   0.0000
   6 C6           3.6198     0.9137     3.4794 C.3          1    LIG   0.0000
   7 O7           3.7036     0.5024     4.8425 O.3          1    LIG   0.0000
   8 C8           4.3270     2.2315     3.2160 C.ar         1    LIG   0.0000
   9 C9           5.2156     2.7808     4.1321 C.ar         1    LIG   0.0000
  10 C10          5.8004     4.0017     3.8335 C.ar         1    LIG   0.0000
  11 F11          6.6282     4.5460     4.7211 F            1    LIG   0.0000
  12 C12          5.5027     4.6406     2.6316 C.ar         1    LIG   0.0000
  13 C13          4.6049     4.0935     1.7185 C.ar         1    LIG   0.0000
  14 C14          3.9990     2.8917     2.0447 C.ar         1    LIG   0.0000
  15 O15          3.0509     2.3674     1.2379 O.3          1    LIG   0.0000
  16 H            1.3287     2.6945     2.0603 H            1    LIG   0.0000
  17 H            3.9233     0.1954     2.8534 H            1    LIG   0.0000
  18 H           -0.7909    -0.0344     1.2156 H            1    LIG   0.0000
  19 H            0.0871     0.0213     2.5914 H            1    LIG   0.0000
  20 H           -0.7352     1.3414     2.0937 H            1    LIG   0.0000
  21 H            0.6993     1.5217     0.2016 H            1    LIG   0.0000
  22 H            1.2156    -0.7909    -0.0344 H            1    LIG   0.0000
  23 H            2.5914     0.0871     0.0213 H            1    LIG   0.0000
  24 H            2.0937    -0.7352     1.3414 H            1    LIG   0.0000
  25 H            1.6037     0.4608     3.3581 H            1    LIG   0.0000
  26 H            1.8938     1.9564     3.9461 H            1    LIG   0.0000
  27 H            3.2232    -0.3670     4.9584 H            1    LIG   0.0000
  28 H            5.4283     2.3066     4.9865 H            1    LIG   0.0000
  29 H            5.9442     5.5125     2.4197 H            1    LIG   0.0000
  30 H            4.4039     4.5541     0.8540 H            1    LIG   0.0000
@<TRIPOS>BOND
   1        1        2 1
   2        2        3 1
   3        2        4 1
   4        4        5 1
   5        5        6 1
   6        6        7 1
   7        6        8 1
   8        8        9 ar
   9        9       10 ar
  10       10       11 1
  11       10       12 ar
  12       12       13 ar
  13       13       14 ar
  14       14        8 ar
  15       14       15 1
  16       15        4 1
  17        4       16 1
  18        6       17 1
  19        1       18 1
  20        1       19 1
  21        1       20 1
  22        2       21 1
  23        3       22 1
  24        3       23 1
  25        3       24 1
  26        5       25 1
  27        5       26 1
  28        7       27 1
  29        9       28 1
  30       12       29 1
  31       13       30 1

@<TRIPOS>MOLECULE

  30   31
SMALL
USER_CHARGES
@<TRIPOS>ATOM
   1 C1          -0.2135     0.5430     1.7930 C.3          1    LIG   0.0000
   2 C2           1.0000     1.0000     1.0000 C.3          1    LIG   0.0000
   3 C3           1.7930    -0.2135     0.5430 C.3          1    LIG   0.0000
   4 C4           1.8799     1.8799     1.8799 C.3          1    LIG   0.0000
   5 C5           2.5518     1.1269     3.0193 C.3          1    LIG   0.0000
   6 C6           4.0692     1.0474     2.8963 C.3          1    LIG   0.0000
   7 O7           4.5191     0.4291     4.1002 O.3          1    LIG   0.0000
   8 C8           4.4570     2.5128     2.8048 C.ar         1    LIG   0.0000
   9 C9           5.4117     3.0708     3.6459 C.ar         1    LIG   0.0000
  10 C10          5.6915     4.4229     3.5213 C.ar         1    LIG   0.0000
  11 F11          6.5825     4.9680     4.3448 F            1    LIG   0.0000
  12 C12          5.0310     5.1845     2.5595 C.ar         1    LIG   0.0000
  13 C13          4.0676     4.6260     1.7233 C.ar         1    LIG   0.0000
  14 C14          3.7702     3.2828     1.8824 C.ar         1    LIG   0.0000
  15 O15          2.7777     2.7164     1.1620 O.3          1    LIG   0.0000
  16 H            1.2456     2.5099     2.3280 H            1    LIG   0.0000
  17 H            4.3517     0.5351     2.0853 H            1    LIG   0.0000
  18 H           -0.7909    -0.0344     1.2156 H            1    LIG   0.0000
  19 H            0.0871     0.0213     2.5914 H            1    LIG   0.0000
  20 H           -0.7352     1.3414     2.0937 H            1    LIG   0.0000
  21 H            0.6993     1.5217     0.2016 H            1    LIG   0.0000
  22 H            1.2156    -0.7909    -0.0344 H            1    LIG   0.0000
  23 H            2.5914     0.0871     0.0213 H            1    LIG   0.0000
  24 H            2.0937    -0.7352     1.3414 H            1    LIG   0.0000
  25 H            2.1882     0.1956     3.0389 H            1    LIG   0.0000
  26 H            2.3292     1.5899     3.8772 H            1    LIG   0.0000
  27 H            4.2375    -0.5304     4.1076 H            1    LIG   0.0000
  28 H            5.8858     2.5105     4.3251 H            1    LIG   0.0000
  29 H            5.2539     6.1550     2.4675 H            1    LIG   0.0000
  30 H            3.6049     5.1777     1.0294 H            1    LIG   0.0000
@<TRIPOS>BOND
   1        1        2 1
   2        2        3 1
   3        2        4 1
   4        4        5 1
   5        5        6 1
   6        6        7 1
   7        6        8 1
   8        8        9 ar
   9        9       10 ar
  10       10       11 1
  11       10       12 ar
  12       12       13 ar
  13       13       14 ar
  14       14        8 ar
  15       14       15 1
  16       15        4 1
  17        4       16 1
  18        6       17 1
  19        1       18 1
  20        1       19 1
  21        1       20 1
  22        2       21 1
  23        3       22 1
  24        3       23 1
  25        3       24 1
  26        5       25 1
  27        5       26 1
  28        7       27 1
  29        9       28 1
  30       12       29 1
  31       13       30 1

