@<TRIPOS>MOLECULE
*****
 30 31 0 0 0
SMALL
USER_CHARGES

@<TRIPOS>ATOM
      1 C1         -0.2135    0.5430    1.7930 C.3     1  LIG1        0.0000
      2 C2          1.0000    1.0000    1.0000 C.3     1  LIG1        0.0000
      3 C3          1.7930   -0.2135    0.5430 C.3     1  LIG1        0.0000
      4 C4          1.8802    1.8802    1.8802 C.3     1  LIG1        0.0000
      5 C5          2.3985    1.0389    3.0305 C.3     1  LIG1        0.0000
      6 C6          3.1632    1.9495    3.9793 C.3     1  LIG1        0.0000
      7 O7          2.2289    2.7779    4.6588 O.3     1  LIG1        0.0000
      8 C8          4.1863    2.7603    3.1988 C.ar    1  LIG1        0.0000
      9 C9          5.2500    3.3415    3.8816 C.ar    1  LIG1        0.0000
     10 C10         6.1926    4.0942    3.1891 C.ar    1  LIG1        0.0000
     11 F11         7.2077    4.6412    3.8522 F       1  LIG1        0.0000
     12 C12         6.0695    4.2685    1.8148 C.ar    1  LIG1        0.0000
     13 C13         5.0031    3.6819    1.1426 C.ar    1  LIG1        0.0000
     14 C14         4.0579    2.9217    1.8220 C.ar    1  LIG1        0.0000
     15 O15         3.0263    2.3319    1.1844 O.3     1  LIG1        0.0000
     16 H           1.3562    2.6579    2.2275 H       1  LIG1        0.0000
     17 H           3.6430    1.3855    4.6513 H       1  LIG1        0.0000
     18 H          -0.7909   -0.0344    1.2156 H       1  LIG1        0.0000
     19 H           0.0871    0.0213    2.5914 H       1  LIG1        0.0000
     20 H          -0.7352    1.3414    2.0937 H       1  LIG1        0.0000
     21 H           0.6993    1.5217    0.2016 H       1  LIG1        0.0000
     22 H           1.2156   -0.7909   -0.0344 H       1  LIG1        0.0000
     23 H           2.5914    0.0871    0.0213 H       1  LIG1        0.0000
     24 H           2.0937   -0.7352    1.3414 H       1  LIG1        0.0000
     25 H           3.0071    0.3264    2.6813 H       1  LIG1        0.0000
     26 H           1.6315    0.6154    3.5126 H       1  LIG1        0.0000
     27 H           1.5772    2.2062    5.1571 H       1  LIG1        0.0000
     28 H           5.3369    3.2180    4.8701 H       1  LIG1        0.0000
     29 H           6.7431    4.8119    1.3137 H       1  LIG1        0.0000
     30 H           4.9145    3.8088    0.1547 H       1  LIG1        0.0000
@<TRIPOS>BOND
     1     1     2    1
     2     2     3    1
     3     2     4    1
     4     4     5    1
     5     5     6    1
     6     6     7    1
     7     6     8    1
     8     8     9   ar
     9     9    10   ar
    10    10    11    1
    11    10    12   ar
    12    12    13   ar
    13    13    14   ar
    14    14     8   ar
    15    14    15    1
    16    15     4    1
    17     4    16    1
    18     6    17    1
    19     1    18    1
    20     1    19    1
    21     1    20    1
    22     2    21    1
    23     3    22    1
    24     3    23    1
    25     3    24    1
    26     5    25    1
    27     5    26    1
    28     7    27    1
    29     9    28    1
    30    12    29    1
    31    13    30    1
