@<TRIPOS>MOLECULE
*****
 30 31 0 0 0
SMALL
USER_CHARGES

@<TRIPOS>ATOM
      1 C1         -0.2135    0.5430    1.7930 C.3     1  LIG1        0.0000
      2 C2          1.0000    1.0000    1.0000 C.3     1  LIG1        0.0000
      3 C3          1.7930   -0.2135    0.5430 C.3     1  LIG1        0.0000
      4 C4          1.8799    1.8799    1.8799 C.3     1  LIG1        0.0000
      5 C5          2.5518    1.1269    3.0193 C.3     1  LIG1        0.0000
      6 C6          4.0692    1.0474    2.8963 C.3     1  LIG1        0.0000
      7 O7          4.5191    0.4291    4.1002 O.3     1  LIG1        0.0000
      8 C8          4.4570    2.5128    2.8048 C.ar    1  LIG1        0.0000
      9 C9          5.4117    3.0708    3.6459 C.ar    1  LIG1        0.0000
     10 C10         5.6915    4.4229    3.5213 C.ar    1  LIG1        0.0000
     11 F11         6.5825    4.9680    4.3448 F       1  LIG1        0.0000
     12 C12         5.0310    5.1845    2.5595 C.ar    1  LIG1        0.0000
     13 C13         4.0676    4.6260    1.7233 C.ar    1  LIG1        0.0000
     14 C14         3.7702    3.2828    1.8824 C.ar    1  LIG1        0.0000
     15 O15         2.7777    2.7164    1.1620 O.3     1  LIG1        0.0000
     16 H           1.2456    2.5099    2.3280 H       1  LIG1        0.0000
     17 H           4.3517    0.5351    2.0853 H       1  LIG1        0.0000
     18 H          -0.7909   -0.0344    1.2156 H       1  LIG1        0.0000
     19 H           0.0871    0.0213    2.5914 H       1  LIG1        0.0000
     20 H          -0.7352    1.3414    2.0937 H       1  LIG1        0.0000
     21 H           0.6993    1.5217    0.2016 H       1  LIG1        0.0000
     22 H           1.2156   -0.7909   -0.0344 H       1  LIG1        0.0000
     23 H           2.5914    0.0871    0.0213 H       1  LIG1        0.0000
     24 H           2.0937   -0.7352    1.3414 H       1  LIG1        0.0000
     25 H           2.1882    0.1956    3.0389 H       1  LIG1        0.0000
     26 H           2.3292    1.5899    3.8772 H       1  LIG1        0.0000
     27 H           4.2375   -0.5304    4.1076 H       1  LIG1        0.0000
     28 H           5.8858    2.5105    4.3251 H       1  LIG1        0.0000
     29 H           5.2539    6.1550    2.4675 H       1  LIG1        0.0000
     30 H           3.6049    5.1777    1.0294 H       1  LIG1        0.0000
@<TRIPOS>BOND
     1     1     2    1
     2     2     3    1
     3     2     4    1
     4     4     5    1
     5     5     6    1
     6     6     7    1
     7     6     8    1
     8     8     9   ar
     9     9    10   ar
    10    10    11    1
    11    10    12   ar
    12    12    13   ar
    13    13    14   ar
    14    14     8   ar
    15    14    15    1
    16    15     4    1
    17     4    16    1
    18     6    17    1
    19     1    18    1
    20     1    19    1
    21     1    20    1
    22     2    21    1
    23     3    22    1
    24     3    23    1
    25     3    24    1
    26     5    25    1
    27     5    26    1
    28     7    27    1
    29     9    28    1
    30    12    29    1
    31    13    30    1
