@<TRIPOS>MOLECULE
*****
 30 31 0 0 0
SMALL
USER_CHARGES

@<TRIPOS>ATOM
      1 C1         -0.2135    0.5430    1.7930 C.3     1  LIG1        0.0000
      2 C2          1.0000    1.0000    1.0000 C.3     1  LIG1        0.0000
      3 C3          1.7930   -0.2135    0.5430 C.3     1  LIG1        0.0000
      4 C4          1.8802    1.8802    1.8802 C.3     1  LIG1        0.0000
      5 C5          2.7772    0.9815    2.7093 C.3     1  LIG1        0.0000
      6 C6          3.5560    1.8535    3.6824 C.3     1  LIG1        0.0000
      7 O7          2.6602    2.3249    4.6805 O.3     1  LIG1        0.0000
      8 C8          4.2243    2.9928    2.9282 C.ar    1  LIG1        0.0000
      9 C9          5.2908    3.6609    3.5214 C.ar    1  LIG1        0.0000
     10 C10         5.9113    4.7113    2.8533 C.ar    1  LIG1        0.0000
     11 F11         6.9328    5.3395    3.4288 F       1  LIG1        0.0000
     12 C12         5.4632    5.0956    1.5941 C.ar    1  LIG1        0.0000
     13 C13         4.3975    4.4197    1.0104 C.ar    1  LIG1        0.0000
     14 C14         3.7729    3.3640    1.6647 C.ar    1  LIG1        0.0000
     15 O15         2.7487    2.6865    1.1074 O.3     1  LIG1        0.0000
     16 H           1.3149    2.4510    2.4757 H       1  LIG1        0.0000
     17 H           4.2628    1.2974    4.1196 H       1  LIG1        0.0000
     18 H          -0.7909   -0.0344    1.2156 H       1  LIG1        0.0000
     19 H           0.0871    0.0213    2.5914 H       1  LIG1        0.0000
     20 H          -0.7352    1.3414    2.0937 H       1  LIG1        0.0000
     21 H           0.6993    1.5217    0.2016 H       1  LIG1        0.0000
     22 H           1.2156   -0.7909   -0.0344 H       1  LIG1        0.0000
     23 H           2.5914    0.0871    0.0213 H       1  LIG1        0.0000
     24 H           2.0937   -0.7352    1.3414 H       1  LIG1        0.0000
     25 H           3.4117    0.4920    2.1112 H       1  LIG1        0.0000
     26 H           2.2210    0.3227    3.2159 H       1  LIG1        0.0000
     27 H           2.2445    1.5459    5.1500 H       1  LIG1        0.0000
     28 H           5.6112    3.3860    4.4279 H       1  LIG1        0.0000
     29 H           5.9043    5.8525    1.1119 H       1  LIG1        0.0000
     30 H           4.0751    4.6975    0.1055 H       1  LIG1        0.0000
@<TRIPOS>BOND
     1     1     2    1
     2     2     3    1
     3     2     4    1
     4     4     5    1
     5     5     6    1
     6     6     7    1
     7     6     8    1
     8     8     9   ar
     9     9    10   ar
    10    10    11    1
    11    10    12   ar
    12    12    13   ar
    13    13    14   ar
    14    14     8   ar
    15    14    15    1
    16    15     4    1
    17     4    16    1
    18     6    17    1
    19     1    18    1
    20     1    19    1
    21     1    20    1
    22     2    21    1
    23     3    22    1
    24     3    23    1
    25     3    24    1
    26     5    25    1
    27     5    26    1
    28     7    27    1
    29     9    28    1
    30    12    29    1
    31    13    30    1
