@<TRIPOS>MOLECULE
*****
 30 31 0 0 0
SMALL
USER_CHARGES

@<TRIPOS>ATOM
      1 C1         -0.2135    0.5430    1.7930 C.3     1  LIG1        0.0000
      2 C2          1.0000    1.0000    1.0000 C.3     1  LIG1        0.0000
      3 C3          1.7930   -0.2135    0.5430 C.3     1  LIG1        0.0000
      4 C4          1.8799    1.8799    1.8799 C.3     1  LIG1        0.0000
      5 C5          2.1589    1.2859    3.2532 C.3     1  LIG1        0.0000
      6 C6          3.6198    0.9137    3.4794 C.3     1  LIG1        0.0000
      7 O7          3.7036    0.5024    4.8425 O.3     1  LIG1        0.0000
      8 C8          4.3270    2.2315    3.2160 C.ar    1  LIG1        0.0000
      9 C9          5.2156    2.7808    4.1321 C.ar    1  LIG1        0.0000
     10 C10         5.8004    4.0017    3.8335 C.ar    1  LIG1        0.0000
     11 F11         6.6282    4.5460    4.7211 F       1  LIG1        0.0000
     12 C12         5.5027    4.6406    2.6316 C.ar    1  LIG1        0.0000
     13 C13         4.6049    4.0935    1.7185 C.ar    1  LIG1        0.0000
     14 C14         3.9990    2.8917    2.0447 C.ar    1  LIG1        0.0000
     15 O15         3.0509    2.3674    1.2379 O.3     1  LIG1        0.0000
     16 H           1.3287    2.6945    2.0603 H       1  LIG1        0.0000
     17 H           3.9233    0.1954    2.8534 H       1  LIG1        0.0000
     18 H          -0.7909   -0.0344    1.2156 H       1  LIG1        0.0000
     19 H           0.0871    0.0213    2.5914 H       1  LIG1        0.0000
     20 H          -0.7352    1.3414    2.0937 H       1  LIG1        0.0000
     21 H           0.6993    1.5217    0.2016 H       1  LIG1        0.0000
     22 H           1.2156   -0.7909   -0.0344 H       1  LIG1        0.0000
     23 H           2.5914    0.0871    0.0213 H       1  LIG1        0.0000
     24 H           2.0937   -0.7352    1.3414 H       1  LIG1        0.0000
     25 H           1.6037    0.4608    3.3581 H       1  LIG1        0.0000
     26 H           1.8938    1.9564    3.9461 H       1  LIG1        0.0000
     27 H           3.2232   -0.3670    4.9584 H       1  LIG1        0.0000
     28 H           5.4283    2.3066    4.9865 H       1  LIG1        0.0000
     29 H           5.9442    5.5125    2.4197 H       1  LIG1        0.0000
     30 H           4.4039    4.5541    0.8540 H       1  LIG1        0.0000
@<TRIPOS>BOND
     1     1     2    1
     2     2     3    1
     3     2     4    1
     4     4     5    1
     5     5     6    1
     6     6     7    1
     7     6     8    1
     8     8     9   ar
     9     9    10   ar
    10    10    11    1
    11    10    12   ar
    12    12    13   ar
    13    13    14   ar
    14    14     8   ar
    15    14    15    1
    16    15     4    1
    17     4    16    1
    18     6    17    1
    19     1    18    1
    20     1    19    1
    21     1    20    1
    22     2    21    1
    23     3    22    1
    24     3    23    1
    25     3    24    1
    26     5    25    1
    27     5    26    1
    28     7    27    1
    29     9    28    1
    30    12    29    1
    31    13    30    1
