@<TRIPOS>MOLECULE
*****
 30 31 0 0 0
SMALL
USER_CHARGES

@<TRIPOS>ATOM
      1 C1         -0.2135    0.5430    1.7930 C.3     1  LIG1        0.0000
      2 C2          1.0000    1.0000    1.0000 C.3     1  LIG1        0.0000
      3 C3          1.7930   -0.2135    0.5430 C.3     1  LIG1        0.0000
      4 C4          1.8802    1.8802    1.8802 C.3     1  LIG1        0.0000
      5 C5          1.9906    1.2311    3.2463 C.3     1  LIG1        0.0000
      6 C6          2.7544    2.1758    4.1617 C.3     1  LIG1        0.0000
      7 O7          1.9174    3.2845    4.4637 O.3     1  LIG1        0.0000
      8 C8          4.0512    2.6028    3.4914 C.ar    1  LIG1        0.0000
      9 C9          5.0775    3.1205    4.2751 C.ar    1  LIG1        0.0000
     10 C10         6.2688    3.5251    3.6820 C.ar    1  LIG1        0.0000
     11 F11         7.2444    4.0144    4.4423 F       1  LIG1        0.0000
     12 C12         6.4323    3.4153    2.3053 C.ar    1  LIG1        0.0000
     13 C13         5.4003    2.8951    1.5322 C.ar    1  LIG1        0.0000
     14 C14         4.2072    2.4810    2.1134 C.ar    1  LIG1        0.0000
     15 O15         3.2019    1.9590    1.3816 O.3     1  LIG1        0.0000
     16 H           1.4849    2.7951    1.9616 H       1  LIG1        0.0000
     17 H           2.9730    1.6956    5.0112 H       1  LIG1        0.0000
     18 H          -0.7909   -0.0344    1.2156 H       1  LIG1        0.0000
     19 H           0.0871    0.0213    2.5914 H       1  LIG1        0.0000
     20 H          -0.7352    1.3414    2.0937 H       1  LIG1        0.0000
     21 H           0.6993    1.5217    0.2016 H       1  LIG1        0.0000
     22 H           1.2156   -0.7909   -0.0344 H       1  LIG1        0.0000
     23 H           2.5914    0.0871    0.0213 H       1  LIG1        0.0000
     24 H           2.0937   -0.7352    1.3414 H       1  LIG1        0.0000
     25 H           2.4817    0.3633    3.1699 H       1  LIG1        0.0000
     26 H           1.0769    1.0655    3.6172 H       1  LIG1        0.0000
     27 H           1.0791    2.9598    4.9016 H       1  LIG1        0.0000
     28 H           4.9587    3.2017    5.2647 H       1  LIG1        0.0000
     29 H           7.2859    3.7083    1.8745 H       1  LIG1        0.0000
     30 H           5.5182    2.8177    0.5422 H       1  LIG1        0.0000
@<TRIPOS>BOND
     1     1     2    1
     2     2     3    1
     3     2     4    1
     4     4     5    1
     5     5     6    1
     6     6     7    1
     7     6     8    1
     8     8     9   ar
     9     9    10   ar
    10    10    11    1
    11    10    12   ar
    12    12    13   ar
    13    13    14   ar
    14    14     8   ar
    15    14    15    1
    16    15     4    1
    17     4    16    1
    18     6    17    1
    19     1    18    1
    20     1    19    1
    21     1    20    1
    22     2    21    1
    23     3    22    1
    24     3    23    1
    25     3    24    1
    26     5    25    1
    27     5    26    1
    28     7    27    1
    29     9    28    1
    30    12    29    1
    31    13    30    1
