@<TRIPOS>MOLECULE

  36   38
SMALL
USER_CHARGES
@<TRIPOS>ATOM
   1 O1          -1.4084     0.7036     2.1791 O.2          1    LIG   0.0000
   2 C2          -1.0599    -0.2238     1.4673 C.2          1    LIG   0.0000
   3 C3          -2.0869    -1.2780     1.0795 C.3          1    LIG   0.0000
   4 C4          -1.8178    -1.8559    -0.3026 C.3          1    LIG   0.0000
   5 C5          -0.3396    -2.1363    -0.5268 C.3          1    LIG   0.0000
   6 C6           0.4462    -0.8389    -0.4110 C.3          1    LIG   0.0000
   7 C7           0.3885    -0.2820     1.0036 C.3          1    LIG   0.0000
   8 O8           1.0000     1.0000     1.0000 O.3          1    LIG   0.0000
   9 C9           2.3490     1.0000     1.0000 C.ar         1    LIG   0.0000
  10 C10          3.0358    -0.2098     1.0034 C.ar         1    LIG   0.0000
  11 C11          4.4265    -0.1974     1.0041 C.ar         1    LIG   0.0000
  12 C12          5.1261     1.0046     1.0005 C.ar         1    LIG   0.0000
  13 C13          4.4345     2.2112     0.9973 C.ar         1    LIG   0.0000
  14 C14          3.0438     2.2041     0.9972 C.ar         1    LIG   0.0000
  15 N15          2.3359     3.4127     0.9935 N.pl3        1    LIG   0.0000
  16 C16          1.3198     3.7300     1.8465 C.2          1    LIG   0.0000
  17 C17          0.8909     4.9854     1.5279 C.2          1    LIG   0.0000
  18 C18          1.6761     5.4409     0.4436 C.2          1    LIG   0.0000
  19 C19          2.5600     4.4490     0.1347 C.2          1    LIG   0.0000
  20 H            0.9019    -0.8862     1.6129 H            1    LIG   0.0000
  21 H           -2.9954    -0.8602     1.0833 H            1    LIG   0.0000
  22 H           -2.0579    -2.0190     1.7504 H            1    LIG   0.0000
  23 H           -2.1304    -1.2024    -0.9920 H            1    LIG   0.0000
  24 H           -2.3267    -2.7113    -0.3993 H            1    LIG   0.0000
  25 H           -0.0153    -2.7850     0.1617 H            1    LIG   0.0000
  26 H           -0.2087    -2.5250    -1.4388 H            1    LIG   0.0000
  27 H            1.4004    -1.0132    -0.6538 H            1    LIG   0.0000
  28 H            0.0593    -0.1663    -1.0418 H            1    LIG   0.0000
  29 H            2.5365    -1.0762     1.0052 H            1    LIG   0.0000
  30 H            4.9288    -1.0621     1.0072 H            1    LIG   0.0000
  31 H            6.1260     1.0012     1.0002 H            1    LIG   0.0000
  32 H            4.9337     3.0777     0.9951 H            1    LIG   0.0000
  33 H            0.9554     3.1480     2.5735 H            1    LIG   0.0000
  34 H            0.1555     5.4911     1.9789 H            1    LIG   0.0000
  35 H            1.5978     6.3272    -0.0127 H            1    LIG   0.0000
  36 H            3.2481     4.4763    -0.5904 H            1    LIG   0.0000
@<TRIPOS>BOND
   1        1        2 2
   2        2        3 1
   3        3        4 1
   4        4        5 1
   5        5        6 1
   6        6        7 1
   7        7        2 1
   8        7        8 1
   9        8        9 1
  10        9       10 ar
  11       10       11 ar
  12       11       12 ar
  13       12       13 ar
  14       13       14 ar
  15       14        9 ar
  16       14       15 1
  17       15       16 1
  18       16       17 2
  19       17       18 1
  20       18       19 2
  21       19       15 1
  22        7       20 1
  23        3       21 1
  24        3       22 1
  25        4       23 1
  26        4       24 1
  27        5       25 1
  28        5       26 1
  29        6       27 1
  30        6       28 1
  31       10       29 1
  32       11       30 1
  33       12       31 1
  34       13       32 1
  35       16       33 1
  36       17       34 1
  37       18       35 1
  38       19       36 1

@<TRIPOS>MOLECULE

  36   38
SMALL
USER_CHARGES
@<TRIPOS>ATOM
   1 O1           1.1640    -0.5205     3.2225 O.2          1    LIG   0.0000
   2 C2           0.3458    -0.8918     2.3974 C.2          1    LIG   0.0000
   3 C3          -0.6753    -1.9465     2.7988 C.3          1    LIG   0.0000
   4 C4          -2.0016    -1.7616     2.0755 C.3          1    LIG   0.0000
   5 C5          -1.8083    -1.4327     0.6030 C.3          1    LIG   0.0000
   6 C6          -1.0289    -0.1328     0.4716 C.3          1    LIG   0.0000
   7 C7           0.3885    -0.2820     1.0036 C.3          1    LIG   0.0000
   8 O8           1.0000     1.0000     1.0000 O.3          1    LIG   0.0000
   9 C9           2.3490     1.0000     1.0000 C.ar         1    LIG   0.0000
  10 C10          3.0358    -0.2098     1.0034 C.ar         1    LIG   0.0000
  11 C11          4.4265    -0.1974     1.0041 C.ar         1    LIG   0.0000
  12 C12          5.1261     1.0046     1.0005 C.ar         1    LIG   0.0000
  13 C13          4.4345     2.2112     0.9973 C.ar         1    LIG   0.0000
  14 C14          3.0438     2.2041     0.9972 C.ar         1    LIG   0.0000
  15 N15          2.3359     3.4127     0.9935 N.pl3        1    LIG   0.0000
  16 C16          1.3198     3.7300     1.8465 C.2          1    LIG   0.0000
  17 C17          0.8909     4.9854     1.5279 C.2          1    LIG   0.0000
  18 C18          1.6761     5.4409     0.4436 C.2          1    LIG   0.0000
  19 C19          2.5600     4.4490     0.1347 C.2          1    LIG   0.0000
  20 H            0.9019    -0.8896     0.3976 H            1    LIG   0.0000
  21 H           -0.8337    -1.8839     3.7842 H            1    LIG   0.0000
  22 H           -0.3099    -2.8505     2.5768 H            1    LIG   0.0000
  23 H           -2.5044    -1.0142     2.5097 H            1    LIG   0.0000
  24 H           -2.5305    -2.6070     2.1504 H            1    LIG   0.0000
  25 H           -1.3008    -2.1718     0.1601 H            1    LIG   0.0000
  26 H           -2.7012    -1.3317     0.1640 H            1    LIG   0.0000
  27 H           -0.9890     0.1269    -0.4933 H            1    LIG   0.0000
  28 H           -1.4979     0.5821     0.9902 H            1    LIG   0.0000
  29 H            2.5365    -1.0762     1.0052 H            1    LIG   0.0000
  30 H            4.9288    -1.0621     1.0072 H            1    LIG   0.0000
  31 H            6.1260     1.0012     1.0002 H            1    LIG   0.0000
  32 H            4.9337     3.0777     0.9951 H            1    LIG   0.0000
  33 H            0.9554     3.1480     2.5735 H            1    LIG   0.0000
  34 H            0.1555     5.4911     1.9789 H            1    LIG   0.0000
  35 H            1.5978     6.3272    -0.0127 H            1    LIG   0.0000
  36 H            3.2481     4.4763    -0.5904 H            1    LIG   0.0000
@<TRIPOS>BOND
   1        1        2 2
   2        2        3 1
   3        3        4 1
   4        4        5 1
   5        5        6 1
   6        6        7 1
   7        7        2 1
   8        7        8 1
   9        8        9 1
  10        9       10 ar
  11       10       11 ar
  12       11       12 ar
  13       12       13 ar
  14       13       14 ar
  15       14        9 ar
  16       14       15 1
  17       15       16 1
  18       16       17 2
  19       17       18 1
  20       18       19 2
  21       19       15 1
  22        7       20 1
  23        3       21 1
  24        3       22 1
  25        4       23 1
  26        4       24 1
  27        5       25 1
  28        5       26 1
  29        6       27 1
  30        6       28 1
  31       10       29 1
  32       11       30 1
  33       12       31 1
  34       13       32 1
  35       16       33 1
  36       17       34 1
  37       18       35 1
  38       19       36 1

@<TRIPOS>MOLECULE

  36   38
SMALL
USER_CHARGES
@<TRIPOS>ATOM
   1 O1          -1.2728    -0.2600     2.6671 O.2          1    LIG   0.0000
   2 C2          -1.0423    -0.0883     1.4817 C.2          1    LIG   0.0000
   3 C3          -2.1545     0.3051     0.5178 C.3          1    LIG   0.0000
   4 C4          -1.9483    -0.2568    -0.8832 C.3          1    LIG   0.0000
   5 C5          -0.4982    -0.2068    -1.3457 C.3          1    LIG   0.0000
   6 C6           0.4422    -0.9139    -0.3792 C.3          1    LIG   0.0000
   7 C7           0.3885    -0.2820     1.0036 C.3          1    LIG   0.0000
   8 O8           1.0000     1.0000     1.0000 O.3          1    LIG   0.0000
   9 C9           2.3490     1.0000     1.0000 C.ar         1    LIG   0.0000
  10 C10          3.0358    -0.2098     1.0034 C.ar         1    LIG   0.0000
  11 C11          4.4265    -0.1974     1.0041 C.ar         1    LIG   0.0000
  12 C12          5.1261     1.0046     1.0005 C.ar         1    LIG   0.0000
  13 C13          4.4345     2.2112     0.9973 C.ar         1    LIG   0.0000
  14 C14          3.0438     2.2041     0.9972 C.ar         1    LIG   0.0000
  15 N15          2.3359     3.4127     0.9935 N.pl3        1    LIG   0.0000
  16 C16          1.3198     3.7300     1.8465 C.2          1    LIG   0.0000
  17 C17          0.8909     4.9854     1.5279 C.2          1    LIG   0.0000
  18 C18          1.6761     5.4409     0.4436 C.2          1    LIG   0.0000
  19 C19          2.5600     4.4490     0.1347 C.2          1    LIG   0.0000
  20 H            0.8715    -0.8719     1.6506 H            1    LIG   0.0000
  21 H           -2.1890     1.3028     0.4599 H            1    LIG   0.0000
  22 H           -3.0231    -0.0384     0.8750 H            1    LIG   0.0000
  23 H           -2.5039     0.2742    -1.5229 H            1    LIG   0.0000
  24 H           -2.2509    -1.2099    -0.8904 H            1    LIG   0.0000
  25 H           -0.4308    -0.6480    -2.2405 H            1    LIG   0.0000
  26 H           -0.2187     0.7502    -1.4240 H            1    LIG   0.0000
  27 H            0.1753    -1.8750    -0.3090 H            1    LIG   0.0000
  28 H            1.3767    -0.8522    -0.7297 H            1    LIG   0.0000
  29 H            2.5365    -1.0762     1.0052 H            1    LIG   0.0000
  30 H            4.9288    -1.0621     1.0072 H            1    LIG   0.0000
  31 H            6.1260     1.0012     1.0002 H            1    LIG   0.0000
  32 H            4.9337     3.0777     0.9951 H            1    LIG   0.0000
  33 H            0.9554     3.1480     2.5735 H            1    LIG   0.0000
  34 H            0.1555     5.4911     1.9789 H            1    LIG   0.0000
  35 H            1.5978     6.3272    -0.0127 H            1    LIG   0.0000
  36 H            3.2481     4.4763    -0.5904 H            1    LIG   0.0000
@<TRIPOS>BOND
   1        1        2 2
   2        2        3 1
   3        3        4 1
   4        4        5 1
   5        5        6 1
   6        6        7 1
   7        7        2 1
   8        7        8 1
   9        8        9 1
  10        9       10 ar
  11       10       11 ar
  12       11       12 ar
  13       12       13 ar
  14       13       14 ar
  15       14        9 ar
  16       14       15 1
  17       15       16 1
  18       16       17 2
  19       17       18 1
  20       18       19 2
  21       19       15 1
  22        7       20 1
  23        3       21 1
  24        3       22 1
  25        4       23 1
  26        4       24 1
  27        5       25 1
  28        5       26 1
  29        6       27 1
  30        6       28 1
  31       10       29 1
  32       11       30 1
  33       12       31 1
  34       13       32 1
  35       16       33 1
  36       17       34 1
  37       18       35 1
  38       19       36 1

@<TRIPOS>MOLECULE

  36   38
SMALL
USER_CHARGES
@<TRIPOS>ATOM
   1 O1           1.3299    -1.5011     2.7799 O.2          1    LIG   0.0000
   2 C2           0.4082    -0.7775     2.4414 C.2          1    LIG   0.0000
   3 C3          -0.6840    -0.3883     3.4297 C.3          1    LIG   0.0000
   4 C4          -2.0424    -0.2018     2.7657 C.3          1    LIG   0.0000
   5 C5          -1.9630     0.4996     1.4163 C.3          1    LIG   0.0000
   6 C6          -1.0262    -0.2112     0.4489 C.3          1    LIG   0.0000
   7 C7           0.3885    -0.2820     1.0036 C.3          1    LIG   0.0000
   8 O8           1.0000     1.0000     1.0000 O.3          1    LIG   0.0000
   9 C9           2.3490     1.0000     1.0000 C.ar         1    LIG   0.0000
  10 C10          3.0358    -0.2098     1.0034 C.ar         1    LIG   0.0000
  11 C11          4.4265    -0.1974     1.0041 C.ar         1    LIG   0.0000
  12 C12          5.1261     1.0046     1.0005 C.ar         1    LIG   0.0000
  13 C13          4.4345     2.2112     0.9973 C.ar         1    LIG   0.0000
  14 C14          3.0438     2.2041     0.9972 C.ar         1    LIG   0.0000
  15 N15          2.3359     3.4127     0.9935 N.pl3        1    LIG   0.0000
  16 C16          1.3198     3.7300     1.8465 C.2          1    LIG   0.0000
  17 C17          0.8909     4.9854     1.5279 C.2          1    LIG   0.0000
  18 C18          1.6761     5.4409     0.4436 C.2          1    LIG   0.0000
  19 C19          2.5600     4.4490     0.1347 C.2          1    LIG   0.0000
  20 H            0.9301    -0.9032     0.4372 H            1    LIG   0.0000
  21 H           -0.4238     0.4703     3.8715 H            1    LIG   0.0000
  22 H           -0.7617    -1.1080     4.1196 H            1    LIG   0.0000
  23 H           -2.6202     0.3433     3.3731 H            1    LIG   0.0000
  24 H           -2.4561    -1.1023     2.6314 H            1    LIG   0.0000
  25 H           -2.8783     0.5284     1.0147 H            1    LIG   0.0000
  26 H           -1.6315     1.4323     1.5579 H            1    LIG   0.0000
  27 H           -1.3621    -1.1401     0.2929 H            1    LIG   0.0000
  28 H           -1.0122     0.2881    -0.4174 H            1    LIG   0.0000
  29 H            2.5365    -1.0762     1.0052 H            1    LIG   0.0000
  30 H            4.9288    -1.0621     1.0072 H            1    LIG   0.0000
  31 H            6.1260     1.0012     1.0002 H            1    LIG   0.0000
  32 H            4.9337     3.0777     0.9951 H            1    LIG   0.0000
  33 H            0.9554     3.1480     2.5735 H            1    LIG   0.0000
  34 H            0.1555     5.4911     1.9789 H            1    LIG   0.0000
  35 H            1.5978     6.3272    -0.0127 H            1    LIG   0.0000
  36 H            3.2481     4.4763    -0.5904 H            1    LIG   0.0000
@<TRIPOS>BOND
   1        1        2 2
   2        2        3 1
   3        3        4 1
   4        4        5 1
   5        5        6 1
   6        6        7 1
   7        7        2 1
   8        7        8 1
   9        8        9 1
  10        9       10 ar
  11       10       11 ar
  12       11       12 ar
  13       12       13 ar
  14       13       14 ar
  15       14        9 ar
  16       14       15 1
  17       15       16 1
  18       16       17 2
  19       17       18 1
  20       18       19 2
  21       19       15 1
  22        7       20 1
  23        3       21 1
  24        3       22 1
  25        4       23 1
  26        4       24 1
  27        5       25 1
  28        5       26 1
  29        6       27 1
  30        6       28 1
  31       10       29 1
  32       11       30 1
  33       12       31 1
  34       13       32 1
  35       16       33 1
  36       17       34 1
  37       18       35 1
  38       19       36 1

@<TRIPOS>MOLECULE

  36   38
SMALL
USER_CHARGES
@<TRIPOS>ATOM
   1 O1          -1.4084     0.7036     2.1791 O.2          1    LIG   0.0000
   2 C2          -1.0599    -0.2238     1.4673 C.2          1    LIG   0.0000
   3 C3          -2.0869    -1.2780     1.0795 C.3          1    LIG   0.0000
   4 C4          -1.8178    -1.8559    -0.3026 C.3          1    LIG   0.0000
   5 C5          -0.3396    -2.1363    -0.5268 C.3          1    LIG   0.0000
   6 C6           0.4462    -0.8389    -0.4110 C.3          1    LIG   0.0000
   7 C7           0.3885    -0.2820     1.0036 C.3          1    LIG   0.0000
   8 O8           1.0000     1.0000     1.0000 O.3          1    LIG   0.0000
   9 C9           2.3490     1.0000     1.0000 C.ar         1    LIG   0.0000
  10 C10          3.0358    -0.2098     1.0034 C.ar         1    LIG   0.0000
  11 C11          4.4265    -0.1974     1.0041 C.ar         1    LIG   0.0000
  12 C12          5.1261     1.0046     1.0005 C.ar         1    LIG   0.0000
  13 C13          4.4345     2.2112     0.9973 C.ar         1    LIG   0.0000
  14 C14          3.0438     2.2041     0.9972 C.ar         1    LIG   0.0000
  15 N15          2.3359     3.4127     0.9935 N.pl3        1    LIG   0.0000
  16 C16          1.3210     3.7254     0.1375 C.2          1    LIG   0.0000
  17 C17          0.8912     4.9822     0.4492 C.2          1    LIG   0.0000
  18 C18          1.6756     5.4439     1.5315 C.2          1    LIG   0.0000
  19 C19          2.5595     4.4539     1.8465 C.2          1    LIG   0.0000
  20 H            0.9019    -0.8862     1.6129 H            1    LIG   0.0000
  21 H           -2.9954    -0.8602     1.0833 H            1    LIG   0.0000
  22 H           -2.0579    -2.0190     1.7504 H            1    LIG   0.0000
  23 H           -2.1304    -1.2024    -0.9920 H            1    LIG   0.0000
  24 H           -2.3267    -2.7113    -0.3993 H            1    LIG   0.0000
  25 H           -0.0153    -2.7850     0.1617 H            1    LIG   0.0000
  26 H           -0.2087    -2.5250    -1.4388 H            1    LIG   0.0000
  27 H            1.4004    -1.0132    -0.6538 H            1    LIG   0.0000
  28 H            0.0593    -0.1663    -1.0418 H            1    LIG   0.0000
  29 H            2.5365    -1.0762     1.0052 H            1    LIG   0.0000
  30 H            4.9288    -1.0621     1.0072 H            1    LIG   0.0000
  31 H            6.1260     1.0012     1.0002 H            1    LIG   0.0000
  32 H            4.9337     3.0777     0.9951 H            1    LIG   0.0000
  33 H            0.9578     3.1397    -0.5871 H            1    LIG   0.0000
  34 H            0.1557     5.4851    -0.0048 H            1    LIG   0.0000
  35 H            1.5968     6.3328     1.9828 H            1    LIG   0.0000
  36 H            3.2472     4.4855     2.5718 H            1    LIG   0.0000
@<TRIPOS>BOND
   1        1        2 2
   2        2        3 1
   3        3        4 1
   4        4        5 1
   5        5        6 1
   6        6        7 1
   7        7        2 1
   8        7        8 1
   9        8        9 1
  10        9       10 ar
  11       10       11 ar
  12       11       12 ar
  13       12       13 ar
  14       13       14 ar
  15       14        9 ar
  16       14       15 1
  17       15       16 1
  18       16       17 2
  19       17       18 1
  20       18       19 2
  21       19       15 1
  22        7       20 1
  23        3       21 1
  24        3       22 1
  25        4       23 1
  26        4       24 1
  27        5       25 1
  28        5       26 1
  29        6       27 1
  30        6       28 1
  31       10       29 1
  32       11       30 1
  33       12       31 1
  34       13       32 1
  35       16       33 1
  36       17       34 1
  37       18       35 1
  38       19       36 1

@<TRIPOS>MOLECULE

  36   38
SMALL
USER_CHARGES
@<TRIPOS>ATOM
   1 O1           1.1640    -0.5205     3.2225 O.2          1    LIG   0.0000
   2 C2           0.3458    -0.8918     2.3974 C.2          1    LIG   0.0000
   3 C3          -0.6753    -1.9465     2.7988 C.3          1    LIG   0.0000
   4 C4          -2.0016    -1.7616     2.0755 C.3          1    LIG   0.0000
   5 C5          -1.8083    -1.4327     0.6030 C.3          1    LIG   0.0000
   6 C6          -1.0289    -0.1328     0.4716 C.3          1    LIG   0.0000
   7 C7           0.3885    -0.2820     1.0036 C.3          1    LIG   0.0000
   8 O8           1.0000     1.0000     1.0000 O.3          1    LIG   0.0000
   9 C9           2.3490     1.0000     1.0000 C.ar         1    LIG   0.0000
  10 C10          3.0358    -0.2098     1.0034 C.ar         1    LIG   0.0000
  11 C11          4.4265    -0.1974     1.0041 C.ar         1    LIG   0.0000
  12 C12          5.1261     1.0046     1.0005 C.ar         1    LIG   0.0000
  13 C13          4.4345     2.2112     0.9973 C.ar         1    LIG   0.0000
  14 C14          3.0438     2.2041     0.9972 C.ar         1    LIG   0.0000
  15 N15          2.3359     3.4127     0.9935 N.pl3        1    LIG   0.0000
  16 C16          1.3210     3.7254     0.1375 C.2          1    LIG   0.0000
  17 C17          0.8912     4.9822     0.4492 C.2          1    LIG   0.0000
  18 C18          1.6756     5.4439     1.5315 C.2          1    LIG   0.0000
  19 C19          2.5595     4.4539     1.8465 C.2          1    LIG   0.0000
  20 H            0.9019    -0.8896     0.3976 H            1    LIG   0.0000
  21 H           -0.8337    -1.8839     3.7842 H            1    LIG   0.0000
  22 H           -0.3099    -2.8505     2.5768 H            1    LIG   0.0000
  23 H           -2.5044    -1.0142     2.5097 H            1    LIG   0.0000
  24 H           -2.5305    -2.6070     2.1504 H            1    LIG   0.0000
  25 H           -1.3008    -2.1718     0.1601 H            1    LIG   0.0000
  26 H           -2.7012    -1.3317     0.1640 H            1    LIG   0.0000
  27 H           -0.9890     0.1269    -0.4933 H            1    LIG   0.0000
  28 H           -1.4979     0.5821     0.9902 H            1    LIG   0.0000
  29 H            2.5365    -1.0762     1.0052 H            1    LIG   0.0000
  30 H            4.9288    -1.0621     1.0072 H            1    LIG   0.0000
  31 H            6.1260     1.0012     1.0002 H            1    LIG   0.0000
  32 H            4.9337     3.0777     0.9951 H            1    LIG   0.0000
  33 H            0.9578     3.1397    -0.5871 H            1    LIG   0.0000
  34 H            0.1557     5.4851    -0.0048 H            1    LIG   0.0000
  35 H            1.5968     6.3328     1.9828 H            1    LIG   0.0000
  36 H            3.2472     4.4855     2.5718 H            1    LIG   0.0000
@<TRIPOS>BOND
   1        1        2 2
   2        2        3 1
   3        3        4 1
   4        4        5 1
   5        5        6 1
   6        6        7 1
   7        7        2 1
   8        7        8 1
   9        8        9 1
  10        9       10 ar
  11       10       11 ar
  12       11       12 ar
  13       12       13 ar
  14       13       14 ar
  15       14        9 ar
  16       14       15 1
  17       15       16 1
  18       16       17 2
  19       17       18 1
  20       18       19 2
  21       19       15 1
  22        7       20 1
  23        3       21 1
  24        3       22 1
  25        4       23 1
  26        4       24 1
  27        5       25 1
  28        5       26 1
  29        6       27 1
  30        6       28 1
  31       10       29 1
  32       11       30 1
  33       12       31 1
  34       13       32 1
  35       16       33 1
  36       17       34 1
  37       18       35 1
  38       19       36 1

@<TRIPOS>MOLECULE

  36   38
SMALL
USER_CHARGES
@<TRIPOS>ATOM
   1 O1          -1.2728    -0.2600     2.6671 O.2          1    LIG   0.0000
   2 C2          -1.0423    -0.0883     1.4817 C.2          1    LIG   0.0000
   3 C3          -2.1545     0.3051     0.5178 C.3          1    LIG   0.0000
   4 C4          -1.9483    -0.2568    -0.8832 C.3          1    LIG   0.0000
   5 C5          -0.4982    -0.2068    -1.3457 C.3          1    LIG   0.0000
   6 C6           0.4422    -0.9139    -0.3792 C.3          1    LIG   0.0000
   7 C7           0.3885    -0.2820     1.0036 C.3          1    LIG   0.0000
   8 O8           1.0000     1.0000     1.0000 O.3          1    LIG   0.0000
   9 C9           2.3490     1.0000     1.0000 C.ar         1    LIG   0.0000
  10 C10          3.0358    -0.2098     1.0034 C.ar         1    LIG   0.0000
  11 C11          4.4265    -0.1974     1.0041 C.ar         1    LIG   0.0000
  12 C12          5.1261     1.0046     1.0005 C.ar         1    LIG   0.0000
  13 C13          4.4345     2.2112     0.9973 C.ar         1    LIG   0.0000
  14 C14          3.0438     2.2041     0.9972 C.ar         1    LIG   0.0000
  15 N15          2.3359     3.4127     0.9935 N.pl3        1    LIG   0.0000
  16 C16          1.3210     3.7254     0.1375 C.2          1    LIG   0.0000
  17 C17          0.8912     4.9822     0.4492 C.2          1    LIG   0.0000
  18 C18          1.6756     5.4439     1.5315 C.2          1    LIG   0.0000
  19 C19          2.5595     4.4539     1.8465 C.2          1    LIG   0.0000
  20 H            0.8715    -0.8719     1.6506 H            1    LIG   0.0000
  21 H           -2.1890     1.3028     0.4599 H            1    LIG   0.0000
  22 H           -3.0231    -0.0384     0.8750 H            1    LIG   0.0000
  23 H           -2.5039     0.2742    -1.5229 H            1    LIG   0.0000
  24 H           -2.2509    -1.2099    -0.8904 H            1    LIG   0.0000
  25 H           -0.4308    -0.6480    -2.2405 H            1    LIG   0.0000
  26 H           -0.2187     0.7502    -1.4240 H            1    LIG   0.0000
  27 H            0.1753    -1.8750    -0.3090 H            1    LIG   0.0000
  28 H            1.3767    -0.8522    -0.7297 H            1    LIG   0.0000
  29 H            2.5365    -1.0762     1.0052 H            1    LIG   0.0000
  30 H            4.9288    -1.0621     1.0072 H            1    LIG   0.0000
  31 H            6.1260     1.0012     1.0002 H            1    LIG   0.0000
  32 H            4.9337     3.0777     0.9951 H            1    LIG   0.0000
  33 H            0.9578     3.1397    -0.5871 H            1    LIG   0.0000
  34 H            0.1557     5.4851    -0.0048 H            1    LIG   0.0000
  35 H            1.5968     6.3328     1.9828 H            1    LIG   0.0000
  36 H            3.2472     4.4855     2.5718 H            1    LIG   0.0000
@<TRIPOS>BOND
   1        1        2 2
   2        2        3 1
   3        3        4 1
   4        4        5 1
   5        5        6 1
   6        6        7 1
   7        7        2 1
   8        7        8 1
   9        8        9 1
  10        9       10 ar
  11       10       11 ar
  12       11       12 ar
  13       12       13 ar
  14       13       14 ar
  15       14        9 ar
  16       14       15 1
  17       15       16 1
  18       16       17 2
  19       17       18 1
  20       18       19 2
  21       19       15 1
  22        7       20 1
  23        3       21 1
  24        3       22 1
  25        4       23 1
  26        4       24 1
  27        5       25 1
  28        5       26 1
  29        6       27 1
  30        6       28 1
  31       10       29 1
  32       11       30 1
  33       12       31 1
  34       13       32 1
  35       16       33 1
  36       17       34 1
  37       18       35 1
  38       19       36 1

@<TRIPOS>MOLECULE

  36   38
SMALL
USER_CHARGES
@<TRIPOS>ATOM
   1 O1           1.3299    -1.5011     2.7799 O.2          1    LIG   0.0000
   2 C2           0.4082    -0.7775     2.4414 C.2          1    LIG   0.0000
   3 C3          -0.6840    -0.3883     3.4297 C.3          1    LIG   0.0000
   4 C4          -2.0424    -0.2018     2.7657 C.3          1    LIG   0.0000
   5 C5          -1.9630     0.4996     1.4163 C.3          1    LIG   0.0000
   6 C6          -1.0262    -0.2112     0.4489 C.3          1    LIG   0.0000
   7 C7           0.3885    -0.2820     1.0036 C.3          1    LIG   0.0000
   8 O8           1.0000     1.0000     1.0000 O.3          1    LIG   0.0000
   9 C9           2.3490     1.0000     1.0000 C.ar         1    LIG   0.0000
  10 C10          3.0358    -0.2098     1.0034 C.ar         1    LIG   0.0000
  11 C11          4.4265    -0.1974     1.0041 C.ar         1    LIG   0.0000
  12 C12          5.1261     1.0046     1.0005 C.ar         1    LIG   0.0000
  13 C13          4.4345     2.2112     0.9973 C.ar         1    LIG   0.0000
  14 C14          3.0438     2.2041     0.9972 C.ar         1    LIG   0.0000
  15 N15          2.3359     3.4127     0.9935 N.pl3        1    LIG   0.0000
  16 C16          1.3210     3.7254     0.1375 C.2          1    LIG   0.0000
  17 C17          0.8912     4.9822     0.4492 C.2          1    LIG   0.0000
  18 C18          1.6756     5.4439     1.5315 C.2          1    LIG   0.0000
  19 C19          2.5595     4.4539     1.8465 C.2          1    LIG   0.0000
  20 H            0.9301    -0.9032     0.4372 H            1    LIG   0.0000
  21 H           -0.4238     0.4703     3.8715 H            1    LIG   0.0000
  22 H           -0.7617    -1.1080     4.1196 H            1    LIG   0.0000
  23 H           -2.6202     0.3433     3.3731 H            1    LIG   0.0000
  24 H           -2.4561    -1.1023     2.6314 H            1    LIG   0.0000
  25 H           -2.8783     0.5284     1.0147 H            1    LIG   0.0000
  26 H           -1.6315     1.4323     1.5579 H            1    LIG   0.0000
  27 H           -1.3621    -1.1401     0.2929 H            1    LIG   0.0000
  28 H           -1.0122     0.2881    -0.4174 H            1    LIG   0.0000
  29 H            2.5365    -1.0762     1.0052 H            1    LIG   0.0000
  30 H            4.9288    -1.0621     1.0072 H            1    LIG   0.0000
  31 H            6.1260     1.0012     1.0002 H            1    LIG   0.0000
  32 H            4.9337     3.0777     0.9951 H            1    LIG   0.0000
  33 H            0.9578     3.1397    -0.5871 H            1    LIG   0.0000
  34 H            0.1557     5.4851    -0.0048 H            1    LIG   0.0000
  35 H            1.5968     6.3328     1.9828 H            1    LIG   0.0000
  36 H            3.2472     4.4855     2.5718 H            1    LIG   0.0000
@<TRIPOS>BOND
   1        1        2 2
   2        2        3 1
   3        3        4 1
   4        4        5 1
   5        5        6 1
   6        6        7 1
   7        7        2 1
   8        7        8 1
   9        8        9 1
  10        9       10 ar
  11       10       11 ar
  12       11       12 ar
  13       12       13 ar
  14       13       14 ar
  15       14        9 ar
  16       14       15 1
  17       15       16 1
  18       16       17 2
  19       17       18 1
  20       18       19 2
  21       19       15 1
  22        7       20 1
  23        3       21 1
  24        3       22 1
  25        4       23 1
  26        4       24 1
  27        5       25 1
  28        5       26 1
  29        6       27 1
  30        6       28 1
  31       10       29 1
  32       11       30 1
  33       12       31 1
  34       13       32 1
  35       16       33 1
  36       17       34 1
  37       18       35 1
  38       19       36 1

@<TRIPOS>MOLECULE

  36   38
SMALL
USER_CHARGES
@<TRIPOS>ATOM
   1 O1          -0.2930     0.1745     3.2193 O.2          1    LIG   0.0000
   2 C2          -0.5095    -0.4843     2.2156 C.2          1    LIG   0.0000
   3 C3          -1.6632    -1.4769     2.2234 C.3          1    LIG   0.0000
   4 C4          -2.3004    -1.6225     0.8489 C.3          1    LIG   0.0000
   5 C5          -1.2599    -1.6966    -0.2583 C.3          1    LIG   0.0000
   6 C6          -0.4367    -0.4174    -0.2673 C.3          1    LIG   0.0000
   7 C7           0.3885    -0.2820     1.0036 C.3          1    LIG   0.0000
   8 O8           1.0000     1.0000     1.0000 O.3          1    LIG   0.0000
   9 C9           2.3490     1.0000     1.0000 C.ar         1    LIG   0.0000
  10 C10          3.0358    -0.2098     1.0034 C.ar         1    LIG   0.0000
  11 C11          4.4265    -0.1974     1.0041 C.ar         1    LIG   0.0000
  12 C12          5.1261     1.0046     1.0005 C.ar         1    LIG   0.0000
  13 C13          4.4345     2.2112     0.9973 C.ar         1    LIG   0.0000
  14 C14          3.0438     2.2041     0.9972 C.ar         1    LIG   0.0000
  15 N15          2.3359     3.4127     0.9935 N.pl3        1    LIG   0.0000
  16 C16          2.4197     4.3745     1.9570 C.2          1    LIG   0.0000
  17 C17          1.5852     5.3922     1.5973 C.2          1    LIG   0.0000
  18 C18          0.9760     5.0306     0.3735 C.2          1    LIG   0.0000
  19 C19          1.4583     3.8033     0.0245 C.2          1    LIG   0.0000
  20 H            1.1015    -0.9831     1.0055 H            1    LIG   0.0000
  21 H           -2.3577    -1.1595     2.8691 H            1    LIG   0.0000
  22 H           -1.3192    -2.3692     2.5158 H            1    LIG   0.0000
  23 H           -2.8927    -0.8341     0.6827 H            1    LIG   0.0000
  24 H           -2.8475    -2.4595     0.8339 H            1    LIG   0.0000
  25 H           -0.6581    -2.4791    -0.0983 H            1    LIG   0.0000
  26 H           -1.7187    -1.8039    -1.1403 H            1    LIG   0.0000
  27 H            0.1788    -0.4317    -1.0553 H            1    LIG   0.0000
  28 H           -1.0534     0.3664    -0.3403 H            1    LIG   0.0000
  29 H            2.5365    -1.0762     1.0052 H            1    LIG   0.0000
  30 H            4.9288    -1.0621     1.0072 H            1    LIG   0.0000
  31 H            6.1260     1.0012     1.0002 H            1    LIG   0.0000
  32 H            4.9337     3.0777     0.9951 H            1    LIG   0.0000
  33 H            2.9894     4.3400     2.7781 H            1    LIG   0.0000
  34 H            1.4322     6.2393     2.1063 H            1    LIG   0.0000
  35 H            0.3135     5.5745    -0.1415 H            1    LIG   0.0000
  36 H            1.2130     3.2836    -0.7939 H            1    LIG   0.0000
@<TRIPOS>BOND
   1        1        2 2
   2        2        3 1
   3        3        4 1
   4        4        5 1
   5        5        6 1
   6        6        7 1
   7        7        2 1
   8        7        8 1
   9        8        9 1
  10        9       10 ar
  11       10       11 ar
  12       11       12 ar
  13       12       13 ar
  14       13       14 ar
  15       14        9 ar
  16       14       15 1
  17       15       16 1
  18       16       17 2
  19       17       18 1
  20       18       19 2
  21       19       15 1
  22        7       20 1
  23        3       21 1
  24        3       22 1
  25        4       23 1
  26        4       24 1
  27        5       25 1
  28        5       26 1
  29        6       27 1
  30        6       28 1
  31       10       29 1
  32       11       30 1
  33       12       31 1
  34       13       32 1
  35       16       33 1
  36       17       34 1
  37       18       35 1
  38       19       36 1

@<TRIPOS>MOLECULE

  36   38
SMALL
USER_CHARGES
@<TRIPOS>ATOM
   1 O1          -0.0600    -0.8457     3.2939 O.2          1    LIG   0.0000
   2 C2          -0.5057    -0.4694     2.2205 C.2          1    LIG   0.0000
   3 C3          -1.9918    -0.1784     2.0833 C.3          1    LIG   0.0000
   4 C4          -2.1764     0.8922     1.0193 C.3          1    LIG   0.0000
   5 C5          -1.6755     0.4214    -0.3408 C.3          1    LIG   0.0000
   6 C6          -0.4820    -0.5180    -0.2286 C.3          1    LIG   0.0000
   7 C7           0.3873    -0.2846     1.0036 C.3          1    LIG   0.0000
   8 O8           1.0000     1.0000     1.0000 O.3          1    LIG   0.0000
   9 C9           2.3490     1.0000     1.0000 C.ar         1    LIG   0.0000
  10 C10          3.0358    -0.2098     1.0034 C.ar         1    LIG   0.0000
  11 C11          4.4265    -0.1974     1.0041 C.ar         1    LIG   0.0000
  12 C12          5.1261     1.0046     1.0005 C.ar         1    LIG   0.0000
  13 C13          4.4345     2.2112     0.9973 C.ar         1    LIG   0.0000
  14 C14          3.0438     2.2041     0.9972 C.ar         1    LIG   0.0000
  15 N15          2.3359     3.4127     0.9935 N.pl3        1    LIG   0.0000
  16 C16          2.4197     4.3745     1.9570 C.2          1    LIG   0.0000
  17 C17          1.5852     5.3922     1.5973 C.2          1    LIG   0.0000
  18 C18          0.9760     5.0306     0.3735 C.2          1    LIG   0.0000
  19 C19          1.4583     3.8033     0.0245 C.2          1    LIG   0.0000
  20 H            1.1048    -0.9808     1.0250 H            1    LIG   0.0000
  21 H           -2.3539     0.1477     2.9566 H            1    LIG   0.0000
  22 H           -2.4751    -1.0108     1.8120 H            1    LIG   0.0000
  23 H           -1.6661     1.7090     1.2884 H            1    LIG   0.0000
  24 H           -3.1487     1.1150     0.9480 H            1    LIG   0.0000
  25 H           -2.4184    -0.0580    -0.8079 H            1    LIG   0.0000
  26 H           -1.4053     1.2208    -0.8775 H            1    LIG   0.0000
  27 H           -0.8244    -1.4570    -0.1970 H            1    LIG   0.0000
  28 H            0.0882    -0.3984    -1.0413 H            1    LIG   0.0000
  29 H            2.5365    -1.0762     1.0052 H            1    LIG   0.0000
  30 H            4.9288    -1.0621     1.0072 H            1    LIG   0.0000
  31 H            6.1260     1.0012     1.0002 H            1    LIG   0.0000
  32 H            4.9337     3.0777     0.9951 H            1    LIG   0.0000
  33 H            2.9894     4.3400     2.7781 H            1    LIG   0.0000
  34 H            1.4322     6.2393     2.1063 H            1    LIG   0.0000
  35 H            0.3135     5.5745    -0.1415 H            1    LIG   0.0000
  36 H            1.2130     3.2836    -0.7939 H            1    LIG   0.0000
@<TRIPOS>BOND
   1        1        2 2
   2        2        3 1
   3        3        4 1
   4        4        5 1
   5        5        6 1
   6        6        7 1
   7        7        2 1
   8        7        8 1
   9        8        9 1
  10        9       10 ar
  11       10       11 ar
  12       11       12 ar
  13       12       13 ar
  14       13       14 ar
  15       14        9 ar
  16       14       15 1
  17       15       16 1
  18       16       17 2
  19       17       18 1
  20       18       19 2
  21       19       15 1
  22        7       20 1
  23        3       21 1
  24        3       22 1
  25        4       23 1
  26        4       24 1
  27        5       25 1
  28        5       26 1
  29        6       27 1
  30        6       28 1
  31       10       29 1
  32       11       30 1
  33       12       31 1
  34       13       32 1
  35       16       33 1
  36       17       34 1
  37       18       35 1
  38       19       36 1

@<TRIPOS>MOLECULE

  36   38
SMALL
USER_CHARGES
@<TRIPOS>ATOM
   1 O1          -0.2930     0.1745     3.2193 O.2          1    LIG   0.0000
   2 C2          -0.5095    -0.4843     2.2156 C.2          1    LIG   0.0000
   3 C3          -1.6632    -1.4769     2.2234 C.3          1    LIG   0.0000
   4 C4          -2.3004    -1.6225     0.8489 C.3          1    LIG   0.0000
   5 C5          -1.2599    -1.6966    -0.2583 C.3          1    LIG   0.0000
   6 C6          -0.4367    -0.4174    -0.2673 C.3          1    LIG   0.0000
   7 C7           0.3885    -0.2820     1.0036 C.3          1    LIG   0.0000
   8 O8           1.0000     1.0000     1.0000 O.3          1    LIG   0.0000
   9 C9           2.3490     1.0000     1.0000 C.ar         1    LIG   0.0000
  10 C10          3.0358    -0.2098     1.0034 C.ar         1    LIG   0.0000
  11 C11          4.4265    -0.1974     1.0041 C.ar         1    LIG   0.0000
  12 C12          5.1261     1.0046     1.0005 C.ar         1    LIG   0.0000
  13 C13          4.4345     2.2112     0.9973 C.ar         1    LIG   0.0000
  14 C14          3.0438     2.2041     0.9972 C.ar         1    LIG   0.0000
  15 N15          2.3359     3.4127     0.9935 N.pl3        1    LIG   0.0000
  16 C16          2.4210     4.3694     0.0250 C.2          1    LIG   0.0000
  17 C17          1.5855     5.3887     0.3779 C.2          1    LIG   0.0000
  18 C18          0.9754     5.0340     1.6033 C.2          1    LIG   0.0000
  19 C19          1.4577     3.8089     1.9597 C.2          1    LIG   0.0000
  20 H            1.1015    -0.9831     1.0055 H            1    LIG   0.0000
  21 H           -2.3577    -1.1595     2.8691 H            1    LIG   0.0000
  22 H           -1.3192    -2.3692     2.5158 H            1    LIG   0.0000
  23 H           -2.8927    -0.8341     0.6827 H            1    LIG   0.0000
  24 H           -2.8475    -2.4595     0.8339 H            1    LIG   0.0000
  25 H           -0.6581    -2.4791    -0.0983 H            1    LIG   0.0000
  26 H           -1.7187    -1.8039    -1.1403 H            1    LIG   0.0000
  27 H            0.1788    -0.4317    -1.0553 H            1    LIG   0.0000
  28 H           -1.0534     0.3664    -0.3403 H            1    LIG   0.0000
  29 H            2.5365    -1.0762     1.0052 H            1    LIG   0.0000
  30 H            4.9288    -1.0621     1.0072 H            1    LIG   0.0000
  31 H            6.1260     1.0012     1.0002 H            1    LIG   0.0000
  32 H            4.9337     3.0777     0.9951 H            1    LIG   0.0000
  33 H            2.9921     4.3307    -0.7949 H            1    LIG   0.0000
  34 H            1.4325     6.2326    -0.1363 H            1    LIG   0.0000
  35 H            0.3124     5.5808     2.1146 H            1    LIG   0.0000
  36 H            1.2119     3.2939     2.7810 H            1    LIG   0.0000
@<TRIPOS>BOND
   1        1        2 2
   2        2        3 1
   3        3        4 1
   4        4        5 1
   5        5        6 1
   6        6        7 1
   7        7        2 1
   8        7        8 1
   9        8        9 1
  10        9       10 ar
  11       10       11 ar
  12       11       12 ar
  13       12       13 ar
  14       13       14 ar
  15       14        9 ar
  16       14       15 1
  17       15       16 1
  18       16       17 2
  19       17       18 1
  20       18       19 2
  21       19       15 1
  22        7       20 1
  23        3       21 1
  24        3       22 1
  25        4       23 1
  26        4       24 1
  27        5       25 1
  28        5       26 1
  29        6       27 1
  30        6       28 1
  31       10       29 1
  32       11       30 1
  33       12       31 1
  34       13       32 1
  35       16       33 1
  36       17       34 1
  37       18       35 1
  38       19       36 1

@<TRIPOS>MOLECULE

  36   38
SMALL
USER_CHARGES
@<TRIPOS>ATOM
   1 O1          -1.4537     0.6818     2.2264 O.2          1    LIG   0.0000
   2 C2          -1.0564    -0.2004     1.4697 C.2          1    LIG   0.0000
   3 C3          -1.9861    -1.2807     0.9449 C.3          1    LIG   0.0000
   4 C4          -1.1464    -2.5301     0.7213 C.3          1    LIG   0.0000
   5 C5          -0.1105    -2.3163    -0.3709 C.3          1    LIG   0.0000
   6 C6           0.3921    -0.8807    -0.3934 C.3          1    LIG   0.0000
   7 C7           0.3890    -0.2811     1.0036 C.3          1    LIG   0.0000
   8 O8           1.0000     1.0000     1.0000 O.3          1    LIG   0.0000
   9 C9           2.3490     1.0000     1.0000 C.ar         1    LIG   0.0000
  10 C10          3.0358    -0.2098     1.0034 C.ar         1    LIG   0.0000
  11 C11          4.4265    -0.1974     1.0041 C.ar         1    LIG   0.0000
  12 C12          5.1261     1.0046     1.0005 C.ar         1    LIG   0.0000
  13 C13          4.4345     2.2112     0.9973 C.ar         1    LIG   0.0000
  14 C14          3.0438     2.2041     0.9972 C.ar         1    LIG   0.0000
  15 N15          2.3359     3.4127     0.9935 N.pl3        1    LIG   0.0000
  16 C16          2.4210     4.3694     0.0250 C.2          1    LIG   0.0000
  17 C17          1.5855     5.3887     0.3779 C.2          1    LIG   0.0000
  18 C18          0.9754     5.0340     1.6033 C.2          1    LIG   0.0000
  19 C19          1.4577     3.8089     1.9597 C.2          1    LIG   0.0000
  20 H            0.8973    -0.8836     1.6187 H            1    LIG   0.0000
  21 H           -2.3996    -0.9874     0.0829 H            1    LIG   0.0000
  22 H           -2.7060    -1.4672     1.6134 H            1    LIG   0.0000
  23 H           -1.7484    -3.2831     0.4554 H            1    LIG   0.0000
  24 H           -0.6773    -2.7633     1.5731 H            1    LIG   0.0000
  25 H            0.6634    -2.9284    -0.2084 H            1    LIG   0.0000
  26 H           -0.5237    -2.5293    -1.2563 H            1    LIG   0.0000
  27 H            1.3249    -0.8662    -0.7535 H            1    LIG   0.0000
  28 H           -0.2020    -0.3354    -0.9848 H            1    LIG   0.0000
  29 H            2.5365    -1.0762     1.0052 H            1    LIG   0.0000
  30 H            4.9288    -1.0621     1.0072 H            1    LIG   0.0000
  31 H            6.1260     1.0012     1.0002 H            1    LIG   0.0000
  32 H            4.9337     3.0777     0.9951 H            1    LIG   0.0000
  33 H            2.9921     4.3307    -0.7949 H            1    LIG   0.0000
  34 H            1.4325     6.2326    -0.1363 H            1    LIG   0.0000
  35 H            0.3124     5.5808     2.1146 H            1    LIG   0.0000
  36 H            1.2119     3.2939     2.7810 H            1    LIG   0.0000
@<TRIPOS>BOND
   1        1        2 2
   2        2        3 1
   3        3        4 1
   4        4        5 1
   5        5        6 1
   6        6        7 1
   7        7        2 1
   8        7        8 1
   9        8        9 1
  10        9       10 ar
  11       10       11 ar
  12       11       12 ar
  13       12       13 ar
  14       13       14 ar
  15       14        9 ar
  16       14       15 1
  17       15       16 1
  18       16       17 2
  19       17       18 1
  20       18       19 2
  21       19       15 1
  22        7       20 1
  23        3       21 1
  24        3       22 1
  25        4       23 1
  26        4       24 1
  27        5       25 1
  28        5       26 1
  29        6       27 1
  30        6       28 1
  31       10       29 1
  32       11       30 1
  33       12       31 1
  34       13       32 1
  35       16       33 1
  36       17       34 1
  37       18       35 1
  38       19       36 1

@<TRIPOS>MOLECULE

  36   38
SMALL
USER_CHARGES
@<TRIPOS>ATOM
   1 O1           0.0106    -0.8705     3.2482 O.2          1    LIG   0.0000
   2 C2          -0.4744    -0.3570     2.2538 C.2          1    LIG   0.0000
   3 C3          -1.8972     0.1872     2.2696 C.3          1    LIG   0.0000
   4 C4          -2.5947     0.0565     0.9215 C.3          1    LIG   0.0000
   5 C5          -1.6846     0.3621    -0.2606 C.3          1    LIG   0.0000
   6 C6          -0.4283    -0.4983    -0.2614 C.3          1    LIG   0.0000
   7 C7           0.3885    -0.2820     1.0036 C.3          1    LIG   0.0000
   8 O8           1.0000     1.0000     1.0000 O.3          1    LIG   0.0000
   9 C9           2.3490     1.0000     1.0000 C.ar         1    LIG   0.0000
  10 C10          3.0358    -0.2098     1.0034 C.ar         1    LIG   0.0000
  11 C11          4.4265    -0.1974     1.0041 C.ar         1    LIG   0.0000
  12 C12          5.1261     1.0046     1.0005 C.ar         1    LIG   0.0000
  13 C13          4.4345     2.2112     0.9973 C.ar         1    LIG   0.0000
  14 C14          3.0438     2.2041     0.9972 C.ar         1    LIG   0.0000
  15 N15          2.3359     3.4127     0.9935 N.pl3        1    LIG   0.0000
  16 C16          2.4210     4.3694     0.0250 C.2          1    LIG   0.0000
  17 C17          1.5855     5.3887     0.3779 C.2          1    LIG   0.0000
  18 C18          0.9754     5.0340     1.6033 C.2          1    LIG   0.0000
  19 C19          1.4577     3.8089     1.9597 C.2          1    LIG   0.0000
  20 H            1.1002    -0.9826     1.0560 H            1    LIG   0.0000
  21 H           -1.8664     1.1546     2.5209 H            1    LIG   0.0000
  22 H           -2.4249    -0.3179     2.9526 H            1    LIG   0.0000
  23 H           -3.3663     0.6923     0.9006 H            1    LIG   0.0000
  24 H           -2.9320    -0.8803     0.8283 H            1    LIG   0.0000
  25 H           -2.1898     0.1941    -1.1071 H            1    LIG   0.0000
  26 H           -1.4152     1.3242    -0.2185 H            1    LIG   0.0000
  27 H           -0.6926    -1.4611    -0.3181 H            1    LIG   0.0000
  28 H            0.1305    -0.2587    -1.0553 H            1    LIG   0.0000
  29 H            2.5365    -1.0762     1.0052 H            1    LIG   0.0000
  30 H            4.9288    -1.0621     1.0072 H            1    LIG   0.0000
  31 H            6.1260     1.0012     1.0002 H            1    LIG   0.0000
  32 H            4.9337     3.0777     0.9951 H            1    LIG   0.0000
  33 H            2.9921     4.3307    -0.7949 H            1    LIG   0.0000
  34 H            1.4325     6.2326    -0.1363 H            1    LIG   0.0000
  35 H            0.3124     5.5808     2.1146 H            1    LIG   0.0000
  36 H            1.2119     3.2939     2.7810 H            1    LIG   0.0000
@<TRIPOS>BOND
   1        1        2 2
   2        2        3 1
   3        3        4 1
   4        4        5 1
   5        5        6 1
   6        6        7 1
   7        7        2 1
   8        7        8 1
   9        8        9 1
  10        9       10 ar
  11       10       11 ar
  12       11       12 ar
  13       12       13 ar
  14       13       14 ar
  15       14        9 ar
  16       14       15 1
  17       15       16 1
  18       16       17 2
  19       17       18 1
  20       18       19 2
  21       19       15 1
  22        7       20 1
  23        3       21 1
  24        3       22 1
  25        4       23 1
  26        4       24 1
  27        5       25 1
  28        5       26 1
  29        6       27 1
  30        6       28 1
  31       10       29 1
  32       11       30 1
  33       12       31 1
  34       13       32 1
  35       16       33 1
  36       17       34 1
  37       18       35 1
  38       19       36 1

@<TRIPOS>MOLECULE

  36   38
SMALL
USER_CHARGES
@<TRIPOS>ATOM
   1 O1           1.2695    -1.5647     2.8507 O.2          1    LIG   0.0000
   2 C2           0.3558    -0.8735     2.4048 C.2          1    LIG   0.0000
   3 C3          -0.8864    -0.5544     3.2225 C.3          1    LIG   0.0000
   4 C4          -1.5222     0.7581     2.7869 C.3          1    LIG   0.0000
   5 C5          -1.9446     0.6859     1.3263 C.3          1    LIG   0.0000
   6 C6          -1.0510    -0.2271     0.5006 C.3          1    LIG   0.0000
   7 C7           0.3874    -0.2843     1.0036 C.3          1    LIG   0.0000
   8 O8           1.0000     1.0000     1.0000 O.3          1    LIG   0.0000
   9 C9           2.3490     1.0000     1.0000 C.ar         1    LIG   0.0000
  10 C10          3.0358    -0.2098     1.0034 C.ar         1    LIG   0.0000
  11 C11          4.4265    -0.1974     1.0041 C.ar         1    LIG   0.0000
  12 C12          5.1261     1.0046     1.0005 C.ar         1    LIG   0.0000
  13 C13          4.4345     2.2112     0.9973 C.ar         1    LIG   0.0000
  14 C14          3.0438     2.2041     0.9972 C.ar         1    LIG   0.0000
  15 N15          2.3359     3.4127     0.9935 N.pl3        1    LIG   0.0000
  16 C16          2.4210     4.3694     0.0250 C.2          1    LIG   0.0000
  17 C17          1.5855     5.3887     0.3779 C.2          1    LIG   0.0000
  18 C18          0.9754     5.0340     1.6033 C.2          1    LIG   0.0000
  19 C19          1.4577     3.8089     1.9597 C.2          1    LIG   0.0000
  20 H            0.9126    -0.8936     0.4095 H            1    LIG   0.0000
  21 H           -0.6315    -0.4870     4.1871 H            1    LIG   0.0000
  22 H           -1.5512    -1.2920     3.1041 H            1    LIG   0.0000
  23 H           -0.8602     1.4987     2.9019 H            1    LIG   0.0000
  24 H           -2.3261     0.9385     3.3536 H            1    LIG   0.0000
  25 H           -2.8824     0.3417     1.2812 H            1    LIG   0.0000
  26 H           -1.9083     1.6063     0.9371 H            1    LIG   0.0000
  27 H           -1.4325    -1.1511     0.5258 H            1    LIG   0.0000
  28 H           -1.0439     0.1050    -0.4426 H            1    LIG   0.0000
  29 H            2.5365    -1.0762     1.0052 H            1    LIG   0.0000
  30 H            4.9288    -1.0621     1.0072 H            1    LIG   0.0000
  31 H            6.1260     1.0012     1.0002 H            1    LIG   0.0000
  32 H            4.9337     3.0777     0.9951 H            1    LIG   0.0000
  33 H            2.9921     4.3307    -0.7949 H            1    LIG   0.0000
  34 H            1.4325     6.2326    -0.1363 H            1    LIG   0.0000
  35 H            0.3124     5.5808     2.1146 H            1    LIG   0.0000
  36 H            1.2119     3.2939     2.7810 H            1    LIG   0.0000
@<TRIPOS>BOND
   1        1        2 2
   2        2        3 1
   3        3        4 1
   4        4        5 1
   5        5        6 1
   6        6        7 1
   7        7        2 1
   8        7        8 1
   9        8        9 1
  10        9       10 ar
  11       10       11 ar
  12       11       12 ar
  13       12       13 ar
  14       13       14 ar
  15       14        9 ar
  16       14       15 1
  17       15       16 1
  18       16       17 2
  19       17       18 1
  20       18       19 2
  21       19       15 1
  22        7       20 1
  23        3       21 1
  24        3       22 1
  25        4       23 1
  26        4       24 1
  27        5       25 1
  28        5       26 1
  29        6       27 1
  30        6       28 1
  31       10       29 1
  32       11       30 1
  33       12       31 1
  34       13       32 1
  35       16       33 1
  36       17       34 1
  37       18       35 1
  38       19       36 1

