@<TRIPOS>MOLECULE
*****
 36 38 0 0 0
SMALL
USER_CHARGES

@<TRIPOS>ATOM
      1 O1         -1.2728   -0.2600    2.6671 O.2     1  LIG1        0.0000
      2 C2         -1.0423   -0.0883    1.4817 C.2     1  LIG1        0.0000
      3 C3         -2.1545    0.3051    0.5178 C.3     1  LIG1        0.0000
      4 C4         -1.9483   -0.2568   -0.8832 C.3     1  LIG1        0.0000
      5 C5         -0.4982   -0.2068   -1.3457 C.3     1  LIG1        0.0000
      6 C6          0.4422   -0.9139   -0.3792 C.3     1  LIG1        0.0000
      7 C7          0.3885   -0.2820    1.0036 C.3     1  LIG1        0.0000
      8 O8          1.0000    1.0000    1.0000 O.2     1  LIG1        0.0000
      9 C9          2.3490    1.0000    1.0000 C.3     1  LIG1        0.0000
     10 C10         3.0358   -0.2098    1.0034 C.3     1  LIG1        0.0000
     11 C11         4.4265   -0.1974    1.0041 C.3     1  LIG1        0.0000
     12 C12         5.1261    1.0046    1.0005 C.3     1  LIG1        0.0000
     13 C13         4.4345    2.2112    0.9973 C.3     1  LIG1        0.0000
     14 C14         3.0438    2.2041    0.9972 C.3     1  LIG1        0.0000
     15 N15         2.3359    3.4127    0.9935 N.pl3   1  LIG1        0.0000
     16 C16         1.3198    3.7300    1.8465 C.2     1  LIG1        0.0000
     17 C17         0.8909    4.9854    1.5279 C.2     1  LIG1        0.0000
     18 C18         1.6761    5.4409    0.4436 C.2     1  LIG1        0.0000
     19 C19         2.5600    4.4490    0.1347 C.2     1  LIG1        0.0000
     20 H           0.8715   -0.8719    1.6506 H       1  LIG1        0.0000
     21 H          -2.1890    1.3028    0.4599 H       1  LIG1        0.0000
     22 H          -3.0231   -0.0384    0.8750 H       1  LIG1        0.0000
     23 H          -2.5039    0.2742   -1.5229 H       1  LIG1        0.0000
     24 H          -2.2509   -1.2099   -0.8904 H       1  LIG1        0.0000
     25 H          -0.4308   -0.6480   -2.2405 H       1  LIG1        0.0000
     26 H          -0.2187    0.7502   -1.4240 H       1  LIG1        0.0000
     27 H           0.1753   -1.8750   -0.3090 H       1  LIG1        0.0000
     28 H           1.3767   -0.8522   -0.7297 H       1  LIG1        0.0000
     29 H           2.5365   -1.0762    1.0052 H       1  LIG1        0.0000
     30 H           4.9288   -1.0621    1.0072 H       1  LIG1        0.0000
     31 H           6.1260    1.0012    1.0002 H       1  LIG1        0.0000
     32 H           4.9337    3.0777    0.9951 H       1  LIG1        0.0000
     33 H           0.9554    3.1480    2.5735 H       1  LIG1        0.0000
     34 H           0.1555    5.4911    1.9789 H       1  LIG1        0.0000
     35 H           1.5978    6.3272   -0.0127 H       1  LIG1        0.0000
     36 H           3.2481    4.4763   -0.5904 H       1  LIG1        0.0000
@<TRIPOS>BOND
     1     1     2    2
     2     2     3    1
     3     3     4    1
     4     4     5    1
     5     5     6    1
     6     6     7    1
     7     7     2    1
     8     7     8    1
     9     8     9    1
    10     9    10   ar
    11    10    11   ar
    12    11    12   ar
    13    12    13   ar
    14    13    14   ar
    15    14     9   ar
    16    14    15    1
    17    15    16    1
    18    16    17    2
    19    17    18    1
    20    18    19    2
    21    19    15    1
    22     7    20    1
    23     3    21    1
    24     3    22    1
    25     4    23    1
    26     4    24    1
    27     5    25    1
    28     5    26    1
    29     6    27    1
    30     6    28    1
    31    10    29    1
    32    11    30    1
    33    12    31    1
    34    13    32    1
    35    16    33    1
    36    17    34    1
    37    18    35    1
    38    19    36    1
