@<TRIPOS>MOLECULE
*****
 36 38 0 0 0
SMALL
USER_CHARGES

@<TRIPOS>ATOM
      1 O1         -0.0600   -0.8457    3.2939 O.2     1  LIG1        0.0000
      2 C2         -0.5057   -0.4694    2.2205 C.2     1  LIG1        0.0000
      3 C3         -1.9918   -0.1784    2.0833 C.3     1  LIG1        0.0000
      4 C4         -2.1764    0.8922    1.0193 C.3     1  LIG1        0.0000
      5 C5         -1.6755    0.4214   -0.3408 C.3     1  LIG1        0.0000
      6 C6         -0.4820   -0.5180   -0.2286 C.3     1  LIG1        0.0000
      7 C7          0.3873   -0.2846    1.0036 C.3     1  LIG1        0.0000
      8 O8          1.0000    1.0000    1.0000 O.2     1  LIG1        0.0000
      9 C9          2.3490    1.0000    1.0000 C.3     1  LIG1        0.0000
     10 C10         3.0358   -0.2098    1.0034 C.3     1  LIG1        0.0000
     11 C11         4.4265   -0.1974    1.0041 C.3     1  LIG1        0.0000
     12 C12         5.1261    1.0046    1.0005 C.3     1  LIG1        0.0000
     13 C13         4.4345    2.2112    0.9973 C.3     1  LIG1        0.0000
     14 C14         3.0438    2.2041    0.9972 C.3     1  LIG1        0.0000
     15 N15         2.3359    3.4127    0.9935 N.pl3   1  LIG1        0.0000
     16 C16         2.4197    4.3745    1.9570 C.2     1  LIG1        0.0000
     17 C17         1.5852    5.3922    1.5973 C.2     1  LIG1        0.0000
     18 C18         0.9760    5.0306    0.3735 C.2     1  LIG1        0.0000
     19 C19         1.4583    3.8033    0.0245 C.2     1  LIG1        0.0000
     20 H           1.1048   -0.9808    1.0250 H       1  LIG1        0.0000
     21 H          -2.3539    0.1477    2.9566 H       1  LIG1        0.0000
     22 H          -2.4751   -1.0108    1.8120 H       1  LIG1        0.0000
     23 H          -1.6661    1.7090    1.2884 H       1  LIG1        0.0000
     24 H          -3.1487    1.1150    0.9480 H       1  LIG1        0.0000
     25 H          -2.4184   -0.0580   -0.8079 H       1  LIG1        0.0000
     26 H          -1.4053    1.2208   -0.8775 H       1  LIG1        0.0000
     27 H          -0.8244   -1.4570   -0.1970 H       1  LIG1        0.0000
     28 H           0.0882   -0.3984   -1.0413 H       1  LIG1        0.0000
     29 H           2.5365   -1.0762    1.0052 H       1  LIG1        0.0000
     30 H           4.9288   -1.0621    1.0072 H       1  LIG1        0.0000
     31 H           6.1260    1.0012    1.0002 H       1  LIG1        0.0000
     32 H           4.9337    3.0777    0.9951 H       1  LIG1        0.0000
     33 H           2.9894    4.3400    2.7781 H       1  LIG1        0.0000
     34 H           1.4322    6.2393    2.1063 H       1  LIG1        0.0000
     35 H           0.3135    5.5745   -0.1415 H       1  LIG1        0.0000
     36 H           1.2130    3.2836   -0.7939 H       1  LIG1        0.0000
@<TRIPOS>BOND
     1     1     2    2
     2     2     3    1
     3     3     4    1
     4     4     5    1
     5     5     6    1
     6     6     7    1
     7     7     2    1
     8     7     8    1
     9     8     9    1
    10     9    10   ar
    11    10    11   ar
    12    11    12   ar
    13    12    13   ar
    14    13    14   ar
    15    14     9   ar
    16    14    15    1
    17    15    16    1
    18    16    17    2
    19    17    18    1
    20    18    19    2
    21    19    15    1
    22     7    20    1
    23     3    21    1
    24     3    22    1
    25     4    23    1
    26     4    24    1
    27     5    25    1
    28     5    26    1
    29     6    27    1
    30     6    28    1
    31    10    29    1
    32    11    30    1
    33    12    31    1
    34    13    32    1
    35    16    33    1
    36    17    34    1
    37    18    35    1
    38    19    36    1
