@<TRIPOS>MOLECULE
*****
 36 38 0 0 0
SMALL
USER_CHARGES

@<TRIPOS>ATOM
      1 O1          1.2695   -1.5647    2.8507 O.2     1  LIG1        0.0000
      2 C2          0.3558   -0.8735    2.4048 C.2     1  LIG1        0.0000
      3 C3         -0.8864   -0.5544    3.2225 C.3     1  LIG1        0.0000
      4 C4         -1.5222    0.7581    2.7869 C.3     1  LIG1        0.0000
      5 C5         -1.9446    0.6859    1.3263 C.3     1  LIG1        0.0000
      6 C6         -1.0510   -0.2271    0.5006 C.3     1  LIG1        0.0000
      7 C7          0.3874   -0.2843    1.0036 C.3     1  LIG1        0.0000
      8 O8          1.0000    1.0000    1.0000 O.2     1  LIG1        0.0000
      9 C9          2.3490    1.0000    1.0000 C.3     1  LIG1        0.0000
     10 C10         3.0358   -0.2098    1.0034 C.3     1  LIG1        0.0000
     11 C11         4.4265   -0.1974    1.0041 C.3     1  LIG1        0.0000
     12 C12         5.1261    1.0046    1.0005 C.3     1  LIG1        0.0000
     13 C13         4.4345    2.2112    0.9973 C.3     1  LIG1        0.0000
     14 C14         3.0438    2.2041    0.9972 C.3     1  LIG1        0.0000
     15 N15         2.3359    3.4127    0.9935 N.pl3   1  LIG1        0.0000
     16 C16         2.4210    4.3694    0.0250 C.2     1  LIG1        0.0000
     17 C17         1.5855    5.3887    0.3779 C.2     1  LIG1        0.0000
     18 C18         0.9754    5.0340    1.6033 C.2     1  LIG1        0.0000
     19 C19         1.4577    3.8089    1.9597 C.2     1  LIG1        0.0000
     20 H           0.9126   -0.8936    0.4095 H       1  LIG1        0.0000
     21 H          -0.6315   -0.4870    4.1871 H       1  LIG1        0.0000
     22 H          -1.5512   -1.2920    3.1041 H       1  LIG1        0.0000
     23 H          -0.8602    1.4987    2.9019 H       1  LIG1        0.0000
     24 H          -2.3261    0.9385    3.3536 H       1  LIG1        0.0000
     25 H          -2.8824    0.3417    1.2812 H       1  LIG1        0.0000
     26 H          -1.9083    1.6063    0.9371 H       1  LIG1        0.0000
     27 H          -1.4325   -1.1511    0.5258 H       1  LIG1        0.0000
     28 H          -1.0439    0.1050   -0.4426 H       1  LIG1        0.0000
     29 H           2.5365   -1.0762    1.0052 H       1  LIG1        0.0000
     30 H           4.9288   -1.0621    1.0072 H       1  LIG1        0.0000
     31 H           6.1260    1.0012    1.0002 H       1  LIG1        0.0000
     32 H           4.9337    3.0777    0.9951 H       1  LIG1        0.0000
     33 H           2.9921    4.3307   -0.7949 H       1  LIG1        0.0000
     34 H           1.4325    6.2326   -0.1363 H       1  LIG1        0.0000
     35 H           0.3124    5.5808    2.1146 H       1  LIG1        0.0000
     36 H           1.2119    3.2939    2.7810 H       1  LIG1        0.0000
@<TRIPOS>BOND
     1     1     2    2
     2     2     3    1
     3     3     4    1
     4     4     5    1
     5     5     6    1
     6     6     7    1
     7     7     2    1
     8     7     8    1
     9     8     9    1
    10     9    10   ar
    11    10    11   ar
    12    11    12   ar
    13    12    13   ar
    14    13    14   ar
    15    14     9   ar
    16    14    15    1
    17    15    16    1
    18    16    17    2
    19    17    18    1
    20    18    19    2
    21    19    15    1
    22     7    20    1
    23     3    21    1
    24     3    22    1
    25     4    23    1
    26     4    24    1
    27     5    25    1
    28     5    26    1
    29     6    27    1
    30     6    28    1
    31    10    29    1
    32    11    30    1
    33    12    31    1
    34    13    32    1
    35    16    33    1
    36    17    34    1
    37    18    35    1
    38    19    36    1
