@<TRIPOS>MOLECULE
*****
 36 38 0 0 0
SMALL
USER_CHARGES

@<TRIPOS>ATOM
      1 O1          1.1640   -0.5205    3.2225 O.2     1  LIG1        0.0000
      2 C2          0.3458   -0.8918    2.3974 C.2     1  LIG1        0.0000
      3 C3         -0.6753   -1.9465    2.7988 C.3     1  LIG1        0.0000
      4 C4         -2.0016   -1.7616    2.0755 C.3     1  LIG1        0.0000
      5 C5         -1.8083   -1.4327    0.6030 C.3     1  LIG1        0.0000
      6 C6         -1.0289   -0.1328    0.4716 C.3     1  LIG1        0.0000
      7 C7          0.3885   -0.2820    1.0036 C.3     1  LIG1        0.0000
      8 O8          1.0000    1.0000    1.0000 O.2     1  LIG1        0.0000
      9 C9          2.3490    1.0000    1.0000 C.3     1  LIG1        0.0000
     10 C10         3.0358   -0.2098    1.0034 C.3     1  LIG1        0.0000
     11 C11         4.4265   -0.1974    1.0041 C.3     1  LIG1        0.0000
     12 C12         5.1261    1.0046    1.0005 C.3     1  LIG1        0.0000
     13 C13         4.4345    2.2112    0.9973 C.3     1  LIG1        0.0000
     14 C14         3.0438    2.2041    0.9972 C.3     1  LIG1        0.0000
     15 N15         2.3359    3.4127    0.9935 N.pl3   1  LIG1        0.0000
     16 C16         1.3210    3.7254    0.1375 C.2     1  LIG1        0.0000
     17 C17         0.8912    4.9822    0.4492 C.2     1  LIG1        0.0000
     18 C18         1.6756    5.4439    1.5315 C.2     1  LIG1        0.0000
     19 C19         2.5595    4.4539    1.8465 C.2     1  LIG1        0.0000
     20 H           0.9019   -0.8896    0.3976 H       1  LIG1        0.0000
     21 H          -0.8337   -1.8839    3.7842 H       1  LIG1        0.0000
     22 H          -0.3099   -2.8505    2.5768 H       1  LIG1        0.0000
     23 H          -2.5044   -1.0142    2.5097 H       1  LIG1        0.0000
     24 H          -2.5305   -2.6070    2.1504 H       1  LIG1        0.0000
     25 H          -1.3008   -2.1718    0.1601 H       1  LIG1        0.0000
     26 H          -2.7012   -1.3317    0.1640 H       1  LIG1        0.0000
     27 H          -0.9890    0.1269   -0.4933 H       1  LIG1        0.0000
     28 H          -1.4979    0.5821    0.9902 H       1  LIG1        0.0000
     29 H           2.5365   -1.0762    1.0052 H       1  LIG1        0.0000
     30 H           4.9288   -1.0621    1.0072 H       1  LIG1        0.0000
     31 H           6.1260    1.0012    1.0002 H       1  LIG1        0.0000
     32 H           4.9337    3.0777    0.9951 H       1  LIG1        0.0000
     33 H           0.9578    3.1397   -0.5871 H       1  LIG1        0.0000
     34 H           0.1557    5.4851   -0.0048 H       1  LIG1        0.0000
     35 H           1.5968    6.3328    1.9828 H       1  LIG1        0.0000
     36 H           3.2472    4.4855    2.5718 H       1  LIG1        0.0000
@<TRIPOS>BOND
     1     1     2    2
     2     2     3    1
     3     3     4    1
     4     4     5    1
     5     5     6    1
     6     6     7    1
     7     7     2    1
     8     7     8    1
     9     8     9    1
    10     9    10   ar
    11    10    11   ar
    12    11    12   ar
    13    12    13   ar
    14    13    14   ar
    15    14     9   ar
    16    14    15    1
    17    15    16    1
    18    16    17    2
    19    17    18    1
    20    18    19    2
    21    19    15    1
    22     7    20    1
    23     3    21    1
    24     3    22    1
    25     4    23    1
    26     4    24    1
    27     5    25    1
    28     5    26    1
    29     6    27    1
    30     6    28    1
    31    10    29    1
    32    11    30    1
    33    12    31    1
    34    13    32    1
    35    16    33    1
    36    17    34    1
    37    18    35    1
    38    19    36    1
