@<TRIPOS>MOLECULE

  30   32
SMALL
USER_CHARGES
@<TRIPOS>ATOM
   1 C1           1.2118    -2.2098    -0.0182 C.3          1    LIG   0.0000
   2 C2           1.2069    -0.6892    -0.0134 C.ar         1    LIG   0.0000
   3 C3          -0.0065    -0.0152     0.0057 C.ar         1    LIG   0.0000
   4 C4          -0.0575     1.3689     0.0219 C.ar         1    LIG   0.0000
   5 C5           1.1410     2.0664    -0.0034 C.ar         1    LIG   0.0000
   6 C6           2.3722     1.4195    -0.0214 C.ar         1    LIG   0.0000
   7 C7           2.3988     0.0294    -0.0229 C.ar         1    LIG   0.0000
   8 C8           3.6707    -0.6671    -0.0368 C.ar         1    LIG   0.0000
   9 C9           4.5353    -0.5571     1.0474 C.ar         1    LIG   0.0000
  10 C10          5.7531    -1.2300     1.0220 C.ar         1    LIG   0.0000
  11 F11          6.5757    -1.1214     2.0615 F            1    LIG   0.0000
  12 C12          6.1146    -2.0089    -0.0725 C.ar         1    LIG   0.0000
  13 C13          5.2457    -2.1154    -1.1535 C.ar         1    LIG   0.0000
  14 C14          4.0261    -1.4453    -1.1348 C.ar         1    LIG   0.0000
  15 F15          3.1988    -1.5504    -2.1712 F            1    LIG   0.0000
  16 C16          0.7798     3.5399    -0.0271 C.3          1    LIG   0.0000
  17 C17         -0.7335     3.5415     0.0489 C.2          1    LIG   0.0000
  18 O18         -1.4582     4.5264     0.0879 O.2          1    LIG   0.0000
  19 N19         -1.1671     2.2200     0.0686 N.am         1    LIG   0.0000
  20 H            0.2701    -2.5462    -0.0100 H            1    LIG   0.0000
  21 H            1.6762    -2.5391    -0.8403 H            1    LIG   0.0000
  22 H            1.6922    -2.5441     0.7927 H            1    LIG   0.0000
  23 H           -0.8589    -0.5381     0.0078 H            1    LIG   0.0000
  24 H            3.2230     1.9448    -0.0331 H            1    LIG   0.0000
  25 H            4.2838     0.0008     1.8383 H            1    LIG   0.0000
  26 H            6.9921    -2.4884    -0.0820 H            1    LIG   0.0000
  27 H            5.4974    -2.6735    -1.9442 H            1    LIG   0.0000
  28 H            1.0946     3.9705    -0.8730 H            1    LIG   0.0000
  29 H            1.1765     4.0167     0.7573 H            1    LIG   0.0000
  30 H           -2.1216     1.9247     0.1096 H            1    LIG   0.0000
@<TRIPOS>BOND
   1        1        2 1
   2        2        3 ar
   3        3        4 ar
   4        4        5 ar
   5        5        6 ar
   6        6        7 ar
   7        7        2 ar
   8        7        8 1
   9        8        9 ar
  10        9       10 ar
  11       10       11 1
  12       10       12 ar
  13       12       13 ar
  14       13       14 ar
  15       14        8 ar
  16       14       15 1
  17        5       16 1
  18       16       17 1
  19       17       18 2
  20       17       19 am
  21       19        4 1
  22        1       20 1
  23        1       21 1
  24        1       22 1
  25        3       23 1
  26        6       24 1
  27        9       25 1
  28       12       26 1
  29       13       27 1
  30       16       28 1
  31       16       29 1
  32       19       30 1

@<TRIPOS>MOLECULE

  30   32
SMALL
USER_CHARGES
@<TRIPOS>ATOM
   1 C1           1.2118    -2.2098    -0.0182 C.3          1    LIG   0.0000
   2 C2           1.2069    -0.6892    -0.0134 C.ar         1    LIG   0.0000
   3 C3          -0.0065    -0.0152     0.0057 C.ar         1    LIG   0.0000
   4 C4          -0.0575     1.3689     0.0219 C.ar         1    LIG   0.0000
   5 C5           1.1410     2.0664    -0.0034 C.ar         1    LIG   0.0000
   6 C6           2.3722     1.4195    -0.0214 C.ar         1    LIG   0.0000
   7 C7           2.3988     0.0294    -0.0229 C.ar         1    LIG   0.0000
   8 C8           3.6707    -0.6671    -0.0368 C.ar         1    LIG   0.0000
   9 C9           4.3422    -0.9119     1.1566 C.ar         1    LIG   0.0000
  10 C10          5.5621    -1.5809     1.1301 C.ar         1    LIG   0.0000
  11 F11          6.1996    -1.8125     2.2743 F            1    LIG   0.0000
  12 C12          6.1162    -2.0061    -0.0730 C.ar         1    LIG   0.0000
  13 C13          5.4398    -1.7587    -1.2631 C.ar         1    LIG   0.0000
  14 C14          4.2192    -1.0903    -1.2441 C.ar         1    LIG   0.0000
  15 F15          3.5765    -0.8562    -2.3850 F            1    LIG   0.0000
  16 C16          0.7798     3.5399    -0.0271 C.3          1    LIG   0.0000
  17 C17         -0.7335     3.5415     0.0489 C.2          1    LIG   0.0000
  18 O18         -1.4582     4.5264     0.0879 O.2          1    LIG   0.0000
  19 N19         -1.1671     2.2200     0.0686 N.am         1    LIG   0.0000
  20 H            0.2701    -2.5462    -0.0100 H            1    LIG   0.0000
  21 H            1.6762    -2.5391    -0.8403 H            1    LIG   0.0000
  22 H            1.6922    -2.5441     0.7927 H            1    LIG   0.0000
  23 H           -0.8589    -0.5381     0.0078 H            1    LIG   0.0000
  24 H            3.2230     1.9448    -0.0331 H            1    LIG   0.0000
  25 H            3.9516    -0.6097     2.0261 H            1    LIG   0.0000
  26 H            6.9937    -2.4856    -0.0823 H            1    LIG   0.0000
  27 H            5.8306    -2.0612    -2.1325 H            1    LIG   0.0000
  28 H            1.0946     3.9705    -0.8730 H            1    LIG   0.0000
  29 H            1.1765     4.0167     0.7573 H            1    LIG   0.0000
  30 H           -2.1216     1.9247     0.1096 H            1    LIG   0.0000
@<TRIPOS>BOND
   1        1        2 1
   2        2        3 ar
   3        3        4 ar
   4        4        5 ar
   5        5        6 ar
   6        6        7 ar
   7        7        2 ar
   8        7        8 1
   9        8        9 ar
  10        9       10 ar
  11       10       11 1
  12       10       12 ar
  13       12       13 ar
  14       13       14 ar
  15       14        8 ar
  16       14       15 1
  17        5       16 1
  18       16       17 1
  19       17       18 2
  20       17       19 am
  21       19        4 1
  22        1       20 1
  23        1       21 1
  24        1       22 1
  25        3       23 1
  26        6       24 1
  27        9       25 1
  28       12       26 1
  29       13       27 1
  30       16       28 1
  31       16       29 1
  32       19       30 1

@<TRIPOS>MOLECULE

  30   32
SMALL
USER_CHARGES
@<TRIPOS>ATOM
   1 C1           1.2118    -2.2098    -0.0182 C.3          1    LIG   0.0000
   2 C2           1.2069    -0.6892    -0.0134 C.ar         1    LIG   0.0000
   3 C3          -0.0065    -0.0152     0.0057 C.ar         1    LIG   0.0000
   4 C4          -0.0575     1.3689     0.0219 C.ar         1    LIG   0.0000
   5 C5           1.1410     2.0664    -0.0034 C.ar         1    LIG   0.0000
   6 C6           2.3722     1.4195    -0.0214 C.ar         1    LIG   0.0000
   7 C7           2.3988     0.0294    -0.0229 C.ar         1    LIG   0.0000
   8 C8           3.6707    -0.6671    -0.0368 C.ar         1    LIG   0.0000
   9 C9           4.5145    -0.5513    -1.1366 C.ar         1    LIG   0.0000
  10 C10          5.7323    -1.2247    -1.1382 C.ar         1    LIG   0.0000
  11 F11          6.5353    -1.1103    -2.1924 F            1    LIG   0.0000
  12 C12          6.1140    -2.0103    -0.0554 C.ar         1    LIG   0.0000
  13 C13          5.2662    -2.1218     1.0418 C.ar         1    LIG   0.0000
  14 C14          4.0468    -1.4510     1.0501 C.ar         1    LIG   0.0000
  15 F15          3.2397    -1.5611     2.1018 F            1    LIG   0.0000
  16 C16          0.7798     3.5399    -0.0271 C.3          1    LIG   0.0000
  17 C17         -0.7335     3.5415     0.0489 C.2          1    LIG   0.0000
  18 O18         -1.4582     4.5264     0.0879 O.2          1    LIG   0.0000
  19 N19         -1.1671     2.2200     0.0686 N.am         1    LIG   0.0000
  20 H            0.2701    -2.5462    -0.0100 H            1    LIG   0.0000
  21 H            1.6762    -2.5391    -0.8403 H            1    LIG   0.0000
  22 H            1.6922    -2.5441     0.7927 H            1    LIG   0.0000
  23 H           -0.8589    -0.5381     0.0078 H            1    LIG   0.0000
  24 H            3.2230     1.9448    -0.0331 H            1    LIG   0.0000
  25 H            4.2483     0.0110    -1.9195 H            1    LIG   0.0000
  26 H            6.9909    -2.4910    -0.0657 H            1    LIG   0.0000
  27 H            5.5328    -2.6841     1.8245 H            1    LIG   0.0000
  28 H            1.0946     3.9705    -0.8730 H            1    LIG   0.0000
  29 H            1.1765     4.0167     0.7573 H            1    LIG   0.0000
  30 H           -2.1216     1.9247     0.1096 H            1    LIG   0.0000
@<TRIPOS>BOND
   1        1        2 1
   2        2        3 ar
   3        3        4 ar
   4        4        5 ar
   5        5        6 ar
   6        6        7 ar
   7        7        2 ar
   8        7        8 1
   9        8        9 ar
  10        9       10 ar
  11       10       11 1
  12       10       12 ar
  13       12       13 ar
  14       13       14 ar
  15       14        8 ar
  16       14       15 1
  17        5       16 1
  18       16       17 1
  19       17       18 2
  20       17       19 am
  21       19        4 1
  22        1       20 1
  23        1       21 1
  24        1       22 1
  25        3       23 1
  26        6       24 1
  27        9       25 1
  28       12       26 1
  29       13       27 1
  30       16       28 1
  31       16       29 1
  32       19       30 1

@<TRIPOS>MOLECULE

  30   32
SMALL
USER_CHARGES
@<TRIPOS>ATOM
   1 C1           1.2118    -2.2098    -0.0182 C.3          1    LIG   0.0000
   2 C2           1.2069    -0.6892    -0.0134 C.ar         1    LIG   0.0000
   3 C3          -0.0065    -0.0152     0.0057 C.ar         1    LIG   0.0000
   4 C4          -0.0575     1.3689     0.0219 C.ar         1    LIG   0.0000
   5 C5           1.1410     2.0664    -0.0034 C.ar         1    LIG   0.0000
   6 C6           2.3722     1.4195    -0.0214 C.ar         1    LIG   0.0000
   7 C7           2.3988     0.0294    -0.0229 C.ar         1    LIG   0.0000
   8 C8           3.6707    -0.6671    -0.0368 C.ar         1    LIG   0.0000
   9 C9           4.3194    -0.9056    -1.2440 C.ar         1    LIG   0.0000
  10 C10          5.5393    -1.5751    -1.2443 C.ar         1    LIG   0.0000
  11 F11          6.1552    -1.8003    -2.4016 F            1    LIG   0.0000
  12 C12          6.1155    -2.0076    -0.0543 C.ar         1    LIG   0.0000
  13 C13          5.4623    -1.7658     1.1498 C.ar         1    LIG   0.0000
  14 C14          4.2421    -1.0966     1.1576 C.ar         1    LIG   0.0000
  15 F15          3.6215    -0.8679     2.3118 F            1    LIG   0.0000
  16 C16          0.7798     3.5399    -0.0271 C.3          1    LIG   0.0000
  17 C17         -0.7335     3.5415     0.0489 C.2          1    LIG   0.0000
  18 O18         -1.4582     4.5264     0.0879 O.2          1    LIG   0.0000
  19 N19         -1.1671     2.2200     0.0686 N.am         1    LIG   0.0000
  20 H            0.2701    -2.5462    -0.0100 H            1    LIG   0.0000
  21 H            1.6762    -2.5391    -0.8403 H            1    LIG   0.0000
  22 H            1.6922    -2.5441     0.7927 H            1    LIG   0.0000
  23 H           -0.8589    -0.5381     0.0078 H            1    LIG   0.0000
  24 H            3.2230     1.9448    -0.0331 H            1    LIG   0.0000
  25 H            3.9125    -0.5986    -2.1044 H            1    LIG   0.0000
  26 H            6.9923    -2.4885    -0.0643 H            1    LIG   0.0000
  27 H            5.8695    -2.0728     2.0100 H            1    LIG   0.0000
  28 H            1.0946     3.9705    -0.8730 H            1    LIG   0.0000
  29 H            1.1765     4.0167     0.7573 H            1    LIG   0.0000
  30 H           -2.1216     1.9247     0.1096 H            1    LIG   0.0000
@<TRIPOS>BOND
   1        1        2 1
   2        2        3 ar
   3        3        4 ar
   4        4        5 ar
   5        5        6 ar
   6        6        7 ar
   7        7        2 ar
   8        7        8 1
   9        8        9 ar
  10        9       10 ar
  11       10       11 1
  12       10       12 ar
  13       12       13 ar
  14       13       14 ar
  15       14        8 ar
  16       14       15 1
  17        5       16 1
  18       16       17 1
  19       17       18 2
  20       17       19 am
  21       19        4 1
  22        1       20 1
  23        1       21 1
  24        1       22 1
  25        3       23 1
  26        6       24 1
  27        9       25 1
  28       12       26 1
  29       13       27 1
  30       16       28 1
  31       16       29 1
  32       19       30 1

@<TRIPOS>MOLECULE

  30   32
SMALL
USER_CHARGES
@<TRIPOS>ATOM
   1 C1           1.2118    -2.2098    -0.0182 C.3          1    LIG   0.0000
   2 C2           1.2069    -0.6892    -0.0134 C.ar         1    LIG   0.0000
   3 C3          -0.0065    -0.0152     0.0057 C.ar         1    LIG   0.0000
   4 C4          -0.0575     1.3689     0.0219 C.ar         1    LIG   0.0000
   5 C5           1.1410     2.0664    -0.0034 C.ar         1    LIG   0.0000
   6 C6           2.3722     1.4195    -0.0214 C.ar         1    LIG   0.0000
   7 C7           2.3988     0.0294    -0.0229 C.ar         1    LIG   0.0000
   8 C8           3.6707    -0.6671    -0.0368 C.ar         1    LIG   0.0000
   9 C9           3.9811    -1.5266    -1.0856 C.ar         1    LIG   0.0000
  10 C10          5.2047    -2.1893    -1.0875 C.ar         1    LIG   0.0000
  11 F11          5.4963    -3.0098    -2.0929 F            1    LIG   0.0000
  12 C12          6.1182    -2.0027    -0.0550 C.ar         1    LIG   0.0000
  13 C13          5.8023    -1.1416     0.9908 C.ar         1    LIG   0.0000
  14 C14          4.5805    -0.4754     0.9990 C.ar         1    LIG   0.0000
  15 F15          4.2833     0.3470     2.0016 F            1    LIG   0.0000
  16 C16          0.7798     3.5399    -0.0271 C.3          1    LIG   0.0000
  17 C17         -0.7335     3.5415     0.0489 C.2          1    LIG   0.0000
  18 O18         -1.4582     4.5264     0.0879 O.2          1    LIG   0.0000
  19 N19         -1.1671     2.2200     0.0686 N.am         1    LIG   0.0000
  20 H            0.2701    -2.5462    -0.0100 H            1    LIG   0.0000
  21 H            1.6762    -2.5391    -0.8403 H            1    LIG   0.0000
  22 H            1.6922    -2.5441     0.7927 H            1    LIG   0.0000
  23 H           -0.8589    -0.5381     0.0078 H            1    LIG   0.0000
  24 H            3.2230     1.9448    -0.0331 H            1    LIG   0.0000
  25 H            3.3304    -1.6671    -1.8318 H            1    LIG   0.0000
  26 H            6.9949    -2.4837    -0.0646 H            1    LIG   0.0000
  27 H            6.4533    -1.0012     1.7369 H            1    LIG   0.0000
  28 H            1.0946     3.9705    -0.8730 H            1    LIG   0.0000
  29 H            1.1765     4.0167     0.7573 H            1    LIG   0.0000
  30 H           -2.1216     1.9247     0.1096 H            1    LIG   0.0000
@<TRIPOS>BOND
   1        1        2 1
   2        2        3 ar
   3        3        4 ar
   4        4        5 ar
   5        5        6 ar
   6        6        7 ar
   7        7        2 ar
   8        7        8 1
   9        8        9 ar
  10        9       10 ar
  11       10       11 1
  12       10       12 ar
  13       12       13 ar
  14       13       14 ar
  15       14        8 ar
  16       14       15 1
  17        5       16 1
  18       16       17 1
  19       17       18 2
  20       17       19 am
  21       19        4 1
  22        1       20 1
  23        1       21 1
  24        1       22 1
  25        3       23 1
  26        6       24 1
  27        9       25 1
  28       12       26 1
  29       13       27 1
  30       16       28 1
  31       16       29 1
  32       19       30 1

@<TRIPOS>MOLECULE

  30   32
SMALL
USER_CHARGES
@<TRIPOS>ATOM
   1 C1           1.2118    -2.2098    -0.0182 C.3          1    LIG   0.0000
   2 C2           1.2069    -0.6892    -0.0134 C.ar         1    LIG   0.0000
   3 C3          -0.0065    -0.0152     0.0057 C.ar         1    LIG   0.0000
   4 C4          -0.0575     1.3689     0.0219 C.ar         1    LIG   0.0000
   5 C5           1.1410     2.0664    -0.0034 C.ar         1    LIG   0.0000
   6 C6           2.3722     1.4195    -0.0214 C.ar         1    LIG   0.0000
   7 C7           2.3988     0.0294    -0.0229 C.ar         1    LIG   0.0000
   8 C8           3.6707    -0.6671    -0.0368 C.ar         1    LIG   0.0000
   9 C9           4.1686    -1.1813    -1.2296 C.ar         1    LIG   0.0000
  10 C10          5.3902    -1.8478    -1.2300 C.ar         1    LIG   0.0000
  11 F11          5.8614    -2.3373    -2.3734 F            1    LIG   0.0000
  12 C12          6.1167    -2.0055    -0.0541 C.ar         1    LIG   0.0000
  13 C13          5.6139    -1.4887     1.1355 C.ar         1    LIG   0.0000
  14 C14          4.3929    -0.8208     1.1431 C.ar         1    LIG   0.0000
  15 F15          3.9165    -0.3286     2.2835 F            1    LIG   0.0000
  16 C16          0.7798     3.5399    -0.0271 C.3          1    LIG   0.0000
  17 C17         -0.7335     3.5415     0.0489 C.2          1    LIG   0.0000
  18 O18         -1.4582     4.5264     0.0879 O.2          1    LIG   0.0000
  19 N19         -1.1671     2.2200     0.0686 N.am         1    LIG   0.0000
  20 H            0.2701    -2.5462    -0.0100 H            1    LIG   0.0000
  21 H            1.6762    -2.5391    -0.8403 H            1    LIG   0.0000
  22 H            1.6922    -2.5441     0.7927 H            1    LIG   0.0000
  23 H           -0.8589    -0.5381     0.0078 H            1    LIG   0.0000
  24 H            3.2230     1.9448    -0.0331 H            1    LIG   0.0000
  25 H            3.6530    -1.0729    -2.0796 H            1    LIG   0.0000
  26 H            6.9934    -2.4864    -0.0640 H            1    LIG   0.0000
  27 H            6.1298    -1.5971     1.9852 H            1    LIG   0.0000
  28 H            1.0946     3.9705    -0.8730 H            1    LIG   0.0000
  29 H            1.1765     4.0167     0.7573 H            1    LIG   0.0000
  30 H           -2.1216     1.9247     0.1096 H            1    LIG   0.0000
@<TRIPOS>BOND
   1        1        2 1
   2        2        3 ar
   3        3        4 ar
   4        4        5 ar
   5        5        6 ar
   6        6        7 ar
   7        7        2 ar
   8        7        8 1
   9        8        9 ar
  10        9       10 ar
  11       10       11 1
  12       10       12 ar
  13       12       13 ar
  14       13       14 ar
  15       14        8 ar
  16       14       15 1
  17        5       16 1
  18       16       17 1
  19       17       18 2
  20       17       19 am
  21       19        4 1
  22        1       20 1
  23        1       21 1
  24        1       22 1
  25        3       23 1
  26        6       24 1
  27        9       25 1
  28       12       26 1
  29       13       27 1
  30       16       28 1
  31       16       29 1
  32       19       30 1

@<TRIPOS>MOLECULE

  30   32
SMALL
USER_CHARGES
@<TRIPOS>ATOM
   1 C1           1.2118    -2.2098    -0.0182 C.3          1    LIG   0.0000
   2 C2           1.2069    -0.6892    -0.0134 C.ar         1    LIG   0.0000
   3 C3          -0.0065    -0.0152     0.0057 C.ar         1    LIG   0.0000
   4 C4          -0.0575     1.3689     0.0219 C.ar         1    LIG   0.0000
   5 C5           1.1410     2.0664    -0.0034 C.ar         1    LIG   0.0000
   6 C6           2.3722     1.4195    -0.0214 C.ar         1    LIG   0.0000
   7 C7           2.3988     0.0294    -0.0229 C.ar         1    LIG   0.0000
   8 C8           3.6707    -0.6671    -0.0368 C.ar         1    LIG   0.0000
   9 C9           4.0009    -1.5321     1.0014 C.ar         1    LIG   0.0000
  10 C10          5.2245    -2.1944     0.9767 C.ar         1    LIG   0.0000
  11 F11          5.5349    -3.0204     1.9720 F            1    LIG   0.0000
  12 C12          6.1188    -2.0013    -0.0713 C.ar         1    LIG   0.0000
  13 C13          5.7828    -1.1354    -1.1068 C.ar         1    LIG   0.0000
  14 C14          4.5606    -0.4699    -1.0888 C.ar         1    LIG   0.0000
  15 F15          4.2442     0.3572    -2.0815 F            1    LIG   0.0000
  16 C16          0.7798     3.5399    -0.0271 C.3          1    LIG   0.0000
  17 C17         -0.7335     3.5415     0.0489 C.2          1    LIG   0.0000
  18 O18         -1.4582     4.5264     0.0879 O.2          1    LIG   0.0000
  19 N19         -1.1671     2.2200     0.0686 N.am         1    LIG   0.0000
  20 H            0.2701    -2.5462    -0.0100 H            1    LIG   0.0000
  21 H            1.6762    -2.5391    -0.8403 H            1    LIG   0.0000
  22 H            1.6922    -2.5441     0.7927 H            1    LIG   0.0000
  23 H           -0.8589    -0.5381     0.0078 H            1    LIG   0.0000
  24 H            3.2230     1.9448    -0.0331 H            1    LIG   0.0000
  25 H            3.3644    -1.6767     1.7589 H            1    LIG   0.0000
  26 H            6.9961    -2.4811    -0.0802 H            1    LIG   0.0000
  27 H            6.4194    -0.9911    -1.8643 H            1    LIG   0.0000
  28 H            1.0946     3.9705    -0.8730 H            1    LIG   0.0000
  29 H            1.1765     4.0167     0.7573 H            1    LIG   0.0000
  30 H           -2.1216     1.9247     0.1096 H            1    LIG   0.0000
@<TRIPOS>BOND
   1        1        2 1
   2        2        3 ar
   3        3        4 ar
   4        4        5 ar
   5        5        6 ar
   6        6        7 ar
   7        7        2 ar
   8        7        8 1
   9        8        9 ar
  10        9       10 ar
  11       10       11 1
  12       10       12 ar
  13       12       13 ar
  14       13       14 ar
  15       14        8 ar
  16       14       15 1
  17        5       16 1
  18       16       17 1
  19       17       18 2
  20       17       19 am
  21       19        4 1
  22        1       20 1
  23        1       21 1
  24        1       22 1
  25        3       23 1
  26        6       24 1
  27        9       25 1
  28       12       26 1
  29       13       27 1
  30       16       28 1
  31       16       29 1
  32       19       30 1

@<TRIPOS>MOLECULE

  30   32
SMALL
USER_CHARGES
@<TRIPOS>ATOM
   1 C1           1.2118    -2.2098    -0.0182 C.3          1    LIG   0.0000
   2 C2           1.2069    -0.6892    -0.0134 C.ar         1    LIG   0.0000
   3 C3          -0.0065    -0.0152     0.0057 C.ar         1    LIG   0.0000
   4 C4          -0.0575     1.3689     0.0219 C.ar         1    LIG   0.0000
   5 C5           1.1410     2.0664    -0.0034 C.ar         1    LIG   0.0000
   6 C6           2.3722     1.4195    -0.0214 C.ar         1    LIG   0.0000
   7 C7           2.3988     0.0294    -0.0229 C.ar         1    LIG   0.0000
   8 C8           3.6707    -0.6671    -0.0368 C.ar         1    LIG   0.0000
   9 C9           4.1912    -1.1875     1.1436 C.ar         1    LIG   0.0000
  10 C10          5.4127    -1.8536     1.1173 C.ar         1    LIG   0.0000
  11 F11          5.9054    -2.3493     2.2490 F            1    LIG   0.0000
  12 C12          6.1174    -2.0039    -0.0727 C.ar         1    LIG   0.0000
  13 C13          5.5916    -1.4817    -1.2499 C.ar         1    LIG   0.0000
  14 C14          4.3704    -0.8146    -1.2310 C.ar         1    LIG   0.0000
  15 F15          3.8721    -0.3170    -2.3597 F            1    LIG   0.0000
  16 C16          0.7798     3.5399    -0.0271 C.3          1    LIG   0.0000
  17 C17         -0.7335     3.5415     0.0489 C.2          1    LIG   0.0000
  18 O18         -1.4582     4.5264     0.0879 O.2          1    LIG   0.0000
  19 N19         -1.1671     2.2200     0.0686 N.am         1    LIG   0.0000
  20 H            0.2701    -2.5462    -0.0100 H            1    LIG   0.0000
  21 H            1.6762    -2.5391    -0.8403 H            1    LIG   0.0000
  22 H            1.6922    -2.5441     0.7927 H            1    LIG   0.0000
  23 H           -0.8589    -0.5381     0.0078 H            1    LIG   0.0000
  24 H            3.2230     1.9448    -0.0331 H            1    LIG   0.0000
  25 H            3.6917    -1.0839     2.0037 H            1    LIG   0.0000
  26 H            6.9948    -2.4835    -0.0818 H            1    LIG   0.0000
  27 H            6.0912    -1.5856    -2.1099 H            1    LIG   0.0000
  28 H            1.0946     3.9705    -0.8730 H            1    LIG   0.0000
  29 H            1.1765     4.0167     0.7573 H            1    LIG   0.0000
  30 H           -2.1216     1.9247     0.1096 H            1    LIG   0.0000
@<TRIPOS>BOND
   1        1        2 1
   2        2        3 ar
   3        3        4 ar
   4        4        5 ar
   5        5        6 ar
   6        6        7 ar
   7        7        2 ar
   8        7        8 1
   9        8        9 ar
  10        9       10 ar
  11       10       11 1
  12       10       12 ar
  13       12       13 ar
  14       13       14 ar
  15       14        8 ar
  16       14       15 1
  17        5       16 1
  18       16       17 1
  19       17       18 2
  20       17       19 am
  21       19        4 1
  22        1       20 1
  23        1       21 1
  24        1       22 1
  25        3       23 1
  26        6       24 1
  27        9       25 1
  28       12       26 1
  29       13       27 1
  30       16       28 1
  31       16       29 1
  32       19       30 1

