@<TRIPOS>MOLECULE
*****
 30 32 0 0 0
SMALL
USER_CHARGES

@<TRIPOS>ATOM
      1 C1          1.2118   -2.2098   -0.0182 C.3     1  LIG1        0.0000
      2 C2          1.2069   -0.6892   -0.0134 C.3     1  LIG1        0.0000
      3 C3         -0.0065   -0.0152    0.0057 C.3     1  LIG1        0.0000
      4 C4         -0.0575    1.3689    0.0219 C.3     1  LIG1        0.0000
      5 C5          1.1410    2.0664   -0.0034 C.3     1  LIG1        0.0000
      6 C6          2.3722    1.4195   -0.0214 C.3     1  LIG1        0.0000
      7 C7          2.3988    0.0294   -0.0229 C.3     1  LIG1        0.0000
      8 C8          3.6707   -0.6671   -0.0368 C.3     1  LIG1        0.0000
      9 C9          4.3422   -0.9119    1.1566 C.3     1  LIG1        0.0000
     10 C10         5.5621   -1.5809    1.1301 C.3     1  LIG1        0.0000
     11 F11         6.1996   -1.8125    2.2743 F       1  LIG1        0.0000
     12 C12         6.1162   -2.0061   -0.0730 C.3     1  LIG1        0.0000
     13 C13         5.4398   -1.7587   -1.2631 C.3     1  LIG1        0.0000
     14 C14         4.2192   -1.0903   -1.2441 C.3     1  LIG1        0.0000
     15 F15         3.5765   -0.8562   -2.3850 F       1  LIG1        0.0000
     16 C16         0.7798    3.5399   -0.0271 C.3     1  LIG1        0.0000
     17 C17        -0.7335    3.5415    0.0489 C.2     1  LIG1        0.0000
     18 O18        -1.4582    4.5264    0.0879 O.2     1  LIG1        0.0000
     19 N19        -1.1671    2.2200    0.0686 N.am    1  LIG1        0.0000
     20 H           0.2701   -2.5462   -0.0100 H       1  LIG1        0.0000
     21 H           1.6762   -2.5391   -0.8403 H       1  LIG1        0.0000
     22 H           1.6922   -2.5441    0.7927 H       1  LIG1        0.0000
     23 H          -0.8589   -0.5381    0.0078 H       1  LIG1        0.0000
     24 H           3.2230    1.9448   -0.0331 H       1  LIG1        0.0000
     25 H           3.9516   -0.6097    2.0261 H       1  LIG1        0.0000
     26 H           6.9937   -2.4856   -0.0823 H       1  LIG1        0.0000
     27 H           5.8306   -2.0612   -2.1325 H       1  LIG1        0.0000
     28 H           1.0946    3.9705   -0.8730 H       1  LIG1        0.0000
     29 H           1.1765    4.0167    0.7573 H       1  LIG1        0.0000
     30 H          -2.1216    1.9247    0.1096 H       1  LIG1        0.0000
@<TRIPOS>BOND
     1     1     2    1
     2     2     3   ar
     3     3     4   ar
     4     4     5   ar
     5     5     6   ar
     6     6     7   ar
     7     7     2   ar
     8     7     8    1
     9     8     9   ar
    10     9    10   ar
    11    10    11    1
    12    10    12   ar
    13    12    13   ar
    14    13    14   ar
    15    14     8   ar
    16    14    15    1
    17     5    16    1
    18    16    17    1
    19    17    18    2
    20    17    19   am
    21    19     4    1
    22     1    20    1
    23     1    21    1
    24     1    22    1
    25     3    23    1
    26     6    24    1
    27     9    25    1
    28    12    26    1
    29    13    27    1
    30    16    28    1
    31    16    29    1
    32    19    30    1
