@<TRIPOS>MOLECULE

  67   70
SMALL
USER_CHARGES
@<TRIPOS>ATOM
   1 C1           7.5675    -1.1762     3.6654 C.3          1    LIG   0.0000
   2 C2           6.6158    -0.3457     2.8198 C.3          1    LIG   0.0000
   3 C3           7.1471    -0.2569     1.3984 C.3          1    LIG   0.0000
   4 C4           5.2446    -1.0015     2.8082 C.3          1    LIG   0.0000
   5 O5           4.3556    -0.2257     2.0182 O.3          1    LIG   0.0000
   6 C6           3.1329    -0.6870     1.9273 C.2          1    LIG   0.0000
   7 O7           2.8311    -1.7020     2.4920 O.2          1    LIG   0.0000
   8 N8           2.1792     0.0034     1.1723 N.am         1    LIG   0.0000
   9 C9           0.8160    -0.5372     1.0881 C.3          1    LIG   0.0000
  10 C10          0.2714    -0.1581    -0.2794 C.3          1    LIG   0.0000
  11 N11          0.2887     1.3049    -0.4259 N.pl3        1    LIG   0.0000
  12 C12         -0.6183     1.9579    -1.2678 C.2          1    LIG   0.0000
  13 N13         -0.6985     3.2502    -1.4781 N.2          1    LIG   0.0000
  14 N14         -1.6833     3.4903    -2.3255 N.2          1    LIG   0.0000
  15 C15         -2.2426     2.3668    -2.6914 C.2          1    LIG   0.0000
  16 C16         -3.3498     2.2133    -3.6154 C.ar         1    LIG   0.0000
  17 C17         -3.5208     3.1342    -4.6437 C.ar         1    LIG   0.0000
  18 C18         -4.5858     2.9797    -5.5249 C.ar         1    LIG   0.0000
  19 C19         -5.4661     1.9127    -5.3730 C.ar         1    LIG   0.0000
  20 C20         -5.2873     0.9963    -4.3418 C.ar         1    LIG   0.0000
  21 C21         -4.2250     1.1439    -3.4557 C.ar         1    LIG   0.0000
  22 N22         -1.5882     1.3777    -2.0277 N.pl3        1    LIG   0.0000
  23 C23         -1.8716    -0.0603    -2.1236 C.3          1    LIG   0.0000
  24 C24         -2.8904    -0.4476    -1.0641 C.3          1    LIG   0.0000
  25 N25         -3.1741    -1.8868    -1.1601 N.am         1    LIG   0.0000
  26 C26         -2.3075    -2.7940    -0.6096 C.2          1    LIG   0.0000
  27 O27         -1.3170    -2.4137    -0.0490 O.2          1    LIG   0.0000
  28 C28         -2.5873    -4.2137    -0.7043 C.ar         1    LIG   0.0000
  29 N29         -1.9982    -5.0712     0.1423 N.ar         1    LIG   1.0000
  30 C30         -2.2352    -6.3899     0.0809 C.ar         1    LIG   0.0000
  31 C31         -3.1058    -6.9116    -0.8699 C.ar         1    LIG   0.0000
  32 C32         -3.7246    -6.0370    -1.7558 C.ar         1    LIG   0.0000
  33 C33         -3.4679    -4.6728    -1.6781 C.ar         1    LIG   0.0000
  34 O34         -4.0754    -3.8319    -2.5429 O.3          1    LIG  -1.0000
  35 C35          1.2918     2.1015     0.2940 C.3          1    LIG   0.0000
  36 C36          2.5289     1.2318     0.4438 C.3          1    LIG   0.0000
  37 H           -1.3682    -4.7195     0.8347 H            1    LIG   0.0000
  38 H            8.4696    -0.7448     3.6731 H            1    LIG   0.0000
  39 H            7.2180    -1.2346     4.6005 H            1    LIG   0.0000
  40 H            7.6410    -2.0956     3.2790 H            1    LIG   0.0000
  41 H            6.5424     0.5737     3.2063 H            1    LIG   0.0000
  42 H            8.0492     0.1745     1.4061 H            1    LIG   0.0000
  43 H            7.2206    -1.1763     1.0120 H            1    LIG   0.0000
  44 H            6.5210     0.2895     0.8421 H            1    LIG   0.0000
  45 H            5.3181    -1.9209     2.4217 H            1    LIG   0.0000
  46 H            4.8951    -1.0599     3.7433 H            1    LIG   0.0000
  47 H            0.2446    -0.1414     1.8071 H            1    LIG   0.0000
  48 H            0.8344    -1.5321     1.1868 H            1    LIG   0.0000
  49 H            0.8401    -0.5710    -0.9908 H            1    LIG   0.0000
  50 H           -0.6674    -0.4909    -0.3682 H            1    LIG   0.0000
  51 H           -2.8850     3.8990    -4.7483 H            1    LIG   0.0000
  52 H           -4.7190     3.6357    -6.2679 H            1    LIG   0.0000
  53 H           -6.2309     1.8043    -6.0081 H            1    LIG   0.0000
  54 H           -5.9226     0.2311    -4.2375 H            1    LIG   0.0000
  55 H           -4.0921     0.4885    -2.7121 H            1    LIG   0.0000
  56 H           -1.0276    -0.5767    -1.9790 H            1    LIG   0.0000
  57 H           -2.2383    -0.2680    -3.0304 H            1    LIG   0.0000
  58 H           -2.5237    -0.2399    -0.1573 H            1    LIG   0.0000
  59 H           -3.7344     0.0688    -1.2087 H            1    LIG   0.0000
  60 H           -3.9995    -2.2037    -1.6272 H            1    LIG   0.0000
  61 H           -1.7809    -7.0046     0.7257 H            1    LIG   0.0000
  62 H           -3.2829    -7.8947    -0.9153 H            1    LIG   0.0000
  63 H           -4.3540    -6.3889    -2.4486 H            1    LIG   0.0000
  64 H            0.9428     2.3597     1.1948 H            1    LIG   0.0000
  65 H            1.5131     2.9261    -0.2267 H            1    LIG   0.0000
  66 H            2.8807     0.9938    -0.4615 H            1    LIG   0.0000
  67 H            3.2291     1.7330     0.9522 H            1    LIG   0.0000
@<TRIPOS>BOND
   1        1        2 1
   2        2        3 1
   3        2        4 1
   4        4        5 1
   5        5        6 1
   6        6        7 2
   7        6        8 am
   8        8        9 1
   9        9       10 1
  10       10       11 1
  11       11       12 1
  12       12       13 2
  13       13       14 1
  14       14       15 2
  15       15       16 1
  16       16       17 ar
  17       17       18 ar
  18       18       19 ar
  19       19       20 ar
  20       20       21 ar
  21       21       16 ar
  22       15       22 1
  23       22       12 1
  24       22       23 1
  25       23       24 1
  26       24       25 1
  27       25       26 am
  28       26       27 2
  29       26       28 1
  30       28       29 ar
  31       29       30 ar
  32       30       31 ar
  33       31       32 ar
  34       32       33 ar
  35       33       28 ar
  36       33       34 1
  37       11       35 1
  38       35       36 1
  39       36        8 1
  40       29       37 1
  41        1       38 1
  42        1       39 1
  43        1       40 1
  44        2       41 1
  45        3       42 1
  46        3       43 1
  47        3       44 1
  48        4       45 1
  49        4       46 1
  50        9       47 1
  51        9       48 1
  52       10       49 1
  53       10       50 1
  54       17       51 1
  55       18       52 1
  56       19       53 1
  57       20       54 1
  58       21       55 1
  59       23       56 1
  60       23       57 1
  61       24       58 1
  62       24       59 1
  63       25       60 1
  64       30       61 1
  65       31       62 1
  66       32       63 1
  67       35       64 1
  68       35       65 1
  69       36       66 1
  70       36       67 1

@<TRIPOS>MOLECULE

  67   70
SMALL
USER_CHARGES
@<TRIPOS>ATOM
   1 C1           4.4306    -4.3477     4.7276 C.3          1    LIG   0.0000
   2 C2           3.3158    -3.6822     3.9372 C.3          1    LIG   0.0000
   3 C3           2.1724    -3.3278     4.8739 C.3          1    LIG   0.0000
   4 C4           3.8449    -2.4167     3.2821 C.3          1    LIG   0.0000
   5 O5           2.8034    -1.7950     2.5437 O.3          1    LIG   0.0000
   6 C6           3.1329    -0.6870     1.9273 C.2          1    LIG   0.0000
   7 O7           4.2529    -0.2644     2.0105 O.2          1    LIG   0.0000
   8 N8           2.1792     0.0034     1.1723 N.am         1    LIG   0.0000
   9 C9           0.8160    -0.5372     1.0881 C.3          1    LIG   0.0000
  10 C10          0.2714    -0.1581    -0.2794 C.3          1    LIG   0.0000
  11 N11          0.2887     1.3049    -0.4259 N.pl3        1    LIG   0.0000
  12 C12         -0.6183     1.9579    -1.2678 C.2          1    LIG   0.0000
  13 N13         -0.6985     3.2502    -1.4781 N.2          1    LIG   0.0000
  14 N14         -1.6833     3.4903    -2.3255 N.2          1    LIG   0.0000
  15 C15         -2.2426     2.3668    -2.6914 C.2          1    LIG   0.0000
  16 C16         -3.3498     2.2133    -3.6154 C.ar         1    LIG   0.0000
  17 C17         -3.5208     3.1342    -4.6437 C.ar         1    LIG   0.0000
  18 C18         -4.5858     2.9797    -5.5249 C.ar         1    LIG   0.0000
  19 C19         -5.4661     1.9127    -5.3730 C.ar         1    LIG   0.0000
  20 C20         -5.2873     0.9963    -4.3418 C.ar         1    LIG   0.0000
  21 C21         -4.2250     1.1439    -3.4557 C.ar         1    LIG   0.0000
  22 N22         -1.5882     1.3777    -2.0277 N.pl3        1    LIG   0.0000
  23 C23         -1.8716    -0.0603    -2.1236 C.3          1    LIG   0.0000
  24 C24         -2.8904    -0.4476    -1.0641 C.3          1    LIG   0.0000
  25 N25         -3.1741    -1.8868    -1.1601 N.am         1    LIG   0.0000
  26 C26         -2.3075    -2.7940    -0.6096 C.2          1    LIG   0.0000
  27 O27         -1.3170    -2.4137    -0.0490 O.2          1    LIG   0.0000
  28 C28         -2.5873    -4.2137    -0.7043 C.ar         1    LIG   0.0000
  29 N29         -1.9982    -5.0712     0.1423 N.ar         1    LIG   1.0000
  30 C30         -2.2352    -6.3899     0.0809 C.ar         1    LIG   0.0000
  31 C31         -3.1058    -6.9116    -0.8699 C.ar         1    LIG   0.0000
  32 C32         -3.7246    -6.0370    -1.7558 C.ar         1    LIG   0.0000
  33 C33         -3.4679    -4.6728    -1.6781 C.ar         1    LIG   0.0000
  34 O34         -4.0754    -3.8319    -2.5429 O.3          1    LIG  -1.0000
  35 C35          1.2918     2.1015     0.2940 C.3          1    LIG   0.0000
  36 C36          2.5289     1.2318     0.4438 C.3          1    LIG   0.0000
  37 H           -1.3682    -4.7195     0.8347 H            1    LIG   0.0000
  38 H            4.0826    -5.1802     5.1585 H            1    LIG   0.0000
  39 H            5.1829    -4.5808     4.1113 H            1    LIG   0.0000
  40 H            4.7599    -3.7199     5.4328 H            1    LIG   0.0000
  41 H            2.9866    -4.3100     3.2319 H            1    LIG   0.0000
  42 H            1.8243    -4.1604     5.3049 H            1    LIG   0.0000
  43 H            2.5017    -2.7000     5.5792 H            1    LIG   0.0000
  44 H            1.4390    -2.8900     4.3539 H            1    LIG   0.0000
  45 H            4.1741    -1.7889     3.9874 H            1    LIG   0.0000
  46 H            4.5971    -2.6499     2.6658 H            1    LIG   0.0000
  47 H            0.2446    -0.1414     1.8071 H            1    LIG   0.0000
  48 H            0.8344    -1.5321     1.1868 H            1    LIG   0.0000
  49 H            0.8401    -0.5710    -0.9908 H            1    LIG   0.0000
  50 H           -0.6674    -0.4909    -0.3682 H            1    LIG   0.0000
  51 H           -2.8850     3.8990    -4.7483 H            1    LIG   0.0000
  52 H           -4.7190     3.6357    -6.2679 H            1    LIG   0.0000
  53 H           -6.2309     1.8043    -6.0081 H            1    LIG   0.0000
  54 H           -5.9226     0.2311    -4.2375 H            1    LIG   0.0000
  55 H           -4.0921     0.4885    -2.7121 H            1    LIG   0.0000
  56 H           -1.0276    -0.5767    -1.9790 H            1    LIG   0.0000
  57 H           -2.2383    -0.2680    -3.0304 H            1    LIG   0.0000
  58 H           -2.5237    -0.2399    -0.1573 H            1    LIG   0.0000
  59 H           -3.7344     0.0688    -1.2087 H            1    LIG   0.0000
  60 H           -3.9995    -2.2037    -1.6272 H            1    LIG   0.0000
  61 H           -1.7809    -7.0046     0.7257 H            1    LIG   0.0000
  62 H           -3.2829    -7.8947    -0.9153 H            1    LIG   0.0000
  63 H           -4.3540    -6.3889    -2.4486 H            1    LIG   0.0000
  64 H            0.9428     2.3597     1.1948 H            1    LIG   0.0000
  65 H            1.5131     2.9261    -0.2267 H            1    LIG   0.0000
  66 H            2.8807     0.9938    -0.4615 H            1    LIG   0.0000
  67 H            3.2291     1.7330     0.9522 H            1    LIG   0.0000
@<TRIPOS>BOND
   1        1        2 1
   2        2        3 1
   3        2        4 1
   4        4        5 1
   5        5        6 1
   6        6        7 2
   7        6        8 am
   8        8        9 1
   9        9       10 1
  10       10       11 1
  11       11       12 1
  12       12       13 2
  13       13       14 1
  14       14       15 2
  15       15       16 1
  16       16       17 ar
  17       17       18 ar
  18       18       19 ar
  19       19       20 ar
  20       20       21 ar
  21       21       16 ar
  22       15       22 1
  23       22       12 1
  24       22       23 1
  25       23       24 1
  26       24       25 1
  27       25       26 am
  28       26       27 2
  29       26       28 1
  30       28       29 ar
  31       29       30 ar
  32       30       31 ar
  33       31       32 ar
  34       32       33 ar
  35       33       28 ar
  36       33       34 1
  37       11       35 1
  38       35       36 1
  39       36        8 1
  40       29       37 1
  41        1       38 1
  42        1       39 1
  43        1       40 1
  44        2       41 1
  45        3       42 1
  46        3       43 1
  47        3       44 1
  48        4       45 1
  49        4       46 1
  50        9       47 1
  51        9       48 1
  52       10       49 1
  53       10       50 1
  54       17       51 1
  55       18       52 1
  56       19       53 1
  57       20       54 1
  58       21       55 1
  59       23       56 1
  60       23       57 1
  61       24       58 1
  62       24       59 1
  63       25       60 1
  64       30       61 1
  65       31       62 1
  66       32       63 1
  67       35       64 1
  68       35       65 1
  69       36       66 1
  70       36       67 1

@<TRIPOS>MOLECULE

  67   70
SMALL
USER_CHARGES
@<TRIPOS>ATOM
   1 C1           7.5675    -1.1762     3.6654 C.3          1    LIG   0.0000
   2 C2           6.6158    -0.3457     2.8198 C.3          1    LIG   0.0000
   3 C3           7.1471    -0.2569     1.3984 C.3          1    LIG   0.0000
   4 C4           5.2446    -1.0015     2.8082 C.3          1    LIG   0.0000
   5 O5           4.3556    -0.2257     2.0182 O.3          1    LIG   0.0000
   6 C6           3.1329    -0.6870     1.9273 C.2          1    LIG   0.0000
   7 O7           2.8311    -1.7020     2.4920 O.2          1    LIG   0.0000
   8 N8           2.1792     0.0034     1.1723 N.am         1    LIG   0.0000
   9 C9           0.8160    -0.5372     1.0881 C.3          1    LIG   0.0000
  10 C10          0.2714    -0.1581    -0.2794 C.3          1    LIG   0.0000
  11 N11          0.2887     1.3049    -0.4259 N.pl3        1    LIG   0.0000
  12 C12         -0.6183     1.9579    -1.2678 C.2          1    LIG   0.0000
  13 N13         -0.6985     3.2502    -1.4781 N.2          1    LIG   0.0000
  14 N14         -1.6833     3.4903    -2.3255 N.2          1    LIG   0.0000
  15 C15         -2.2426     2.3668    -2.6914 C.2          1    LIG   0.0000
  16 C16         -3.3498     2.2133    -3.6154 C.ar         1    LIG   0.0000
  17 C17         -3.5208     3.1342    -4.6437 C.ar         1    LIG   0.0000
  18 C18         -4.5858     2.9797    -5.5249 C.ar         1    LIG   0.0000
  19 C19         -5.4661     1.9127    -5.3730 C.ar         1    LIG   0.0000
  20 C20         -5.2873     0.9963    -4.3418 C.ar         1    LIG   0.0000
  21 C21         -4.2250     1.1439    -3.4557 C.ar         1    LIG   0.0000
  22 N22         -1.5882     1.3777    -2.0277 N.pl3        1    LIG   0.0000
  23 C23         -1.8716    -0.0603    -2.1236 C.3          1    LIG   0.0000
  24 C24         -2.8904    -0.4476    -1.0641 C.3          1    LIG   0.0000
  25 N25         -3.1741    -1.8868    -1.1601 N.am         1    LIG   0.0000
  26 C26         -2.3075    -2.7940    -0.6096 C.2          1    LIG   0.0000
  27 O27         -1.3170    -2.4137    -0.0490 O.2          1    LIG   0.0000
  28 C28         -2.5873    -4.2137    -0.7043 C.ar         1    LIG   0.0000
  29 N29         -3.6946    -4.6386    -1.3308 N.ar         1    LIG   1.0000
  30 C30         -3.9826    -5.9444    -1.4352 C.ar         1    LIG   0.0000
  31 C31         -3.1350    -6.9043    -0.8927 C.ar         1    LIG   0.0000
  32 C32         -1.9832    -6.4813    -0.2391 C.ar         1    LIG   0.0000
  33 C33         -1.6996    -5.1239    -0.1402 C.ar         1    LIG   0.0000
  34 O34         -0.5774    -4.7239     0.4958 O.3          1    LIG  -1.0000
  35 C35          1.2918     2.1015     0.2940 C.3          1    LIG   0.0000
  36 C36          2.5289     1.2318     0.4438 C.3          1    LIG   0.0000
  37 H           -4.3192    -3.9669    -1.7290 H            1    LIG   0.0000
  38 H            8.4696    -0.7448     3.6731 H            1    LIG   0.0000
  39 H            7.2180    -1.2346     4.6005 H            1    LIG   0.0000
  40 H            7.6410    -2.0956     3.2790 H            1    LIG   0.0000
  41 H            6.5424     0.5737     3.2063 H            1    LIG   0.0000
  42 H            8.0492     0.1745     1.4061 H            1    LIG   0.0000
  43 H            7.2206    -1.1763     1.0120 H            1    LIG   0.0000
  44 H            6.5210     0.2895     0.8421 H            1    LIG   0.0000
  45 H            5.3181    -1.9209     2.4217 H            1    LIG   0.0000
  46 H            4.8951    -1.0599     3.7433 H            1    LIG   0.0000
  47 H            0.2446    -0.1414     1.8071 H            1    LIG   0.0000
  48 H            0.8344    -1.5321     1.1868 H            1    LIG   0.0000
  49 H            0.8401    -0.5710    -0.9908 H            1    LIG   0.0000
  50 H           -0.6674    -0.4909    -0.3682 H            1    LIG   0.0000
  51 H           -2.8850     3.8990    -4.7483 H            1    LIG   0.0000
  52 H           -4.7190     3.6357    -6.2679 H            1    LIG   0.0000
  53 H           -6.2309     1.8043    -6.0081 H            1    LIG   0.0000
  54 H           -5.9226     0.2311    -4.2375 H            1    LIG   0.0000
  55 H           -4.0921     0.4885    -2.7121 H            1    LIG   0.0000
  56 H           -1.0276    -0.5767    -1.9790 H            1    LIG   0.0000
  57 H           -2.2383    -0.2680    -3.0304 H            1    LIG   0.0000
  58 H           -2.5237    -0.2399    -0.1573 H            1    LIG   0.0000
  59 H           -3.7344     0.0688    -1.2087 H            1    LIG   0.0000
  60 H           -3.9995    -2.2037    -1.6272 H            1    LIG   0.0000
  61 H           -4.8158    -6.2308    -1.9083 H            1    LIG   0.0000
  62 H           -3.3495    -7.8779    -0.9711 H            1    LIG   0.0000
  63 H           -1.3590    -7.1531     0.1596 H            1    LIG   0.0000
  64 H            0.9428     2.3597     1.1948 H            1    LIG   0.0000
  65 H            1.5131     2.9261    -0.2267 H            1    LIG   0.0000
  66 H            2.8807     0.9938    -0.4615 H            1    LIG   0.0000
  67 H            3.2291     1.7330     0.9522 H            1    LIG   0.0000
@<TRIPOS>BOND
   1        1        2 1
   2        2        3 1
   3        2        4 1
   4        4        5 1
   5        5        6 1
   6        6        7 2
   7        6        8 am
   8        8        9 1
   9        9       10 1
  10       10       11 1
  11       11       12 1
  12       12       13 2
  13       13       14 1
  14       14       15 2
  15       15       16 1
  16       16       17 ar
  17       17       18 ar
  18       18       19 ar
  19       19       20 ar
  20       20       21 ar
  21       21       16 ar
  22       15       22 1
  23       22       12 1
  24       22       23 1
  25       23       24 1
  26       24       25 1
  27       25       26 am
  28       26       27 2
  29       26       28 1
  30       28       29 ar
  31       29       30 ar
  32       30       31 ar
  33       31       32 ar
  34       32       33 ar
  35       33       28 ar
  36       33       34 1
  37       11       35 1
  38       35       36 1
  39       36        8 1
  40       29       37 1
  41        1       38 1
  42        1       39 1
  43        1       40 1
  44        2       41 1
  45        3       42 1
  46        3       43 1
  47        3       44 1
  48        4       45 1
  49        4       46 1
  50        9       47 1
  51        9       48 1
  52       10       49 1
  53       10       50 1
  54       17       51 1
  55       18       52 1
  56       19       53 1
  57       20       54 1
  58       21       55 1
  59       23       56 1
  60       23       57 1
  61       24       58 1
  62       24       59 1
  63       25       60 1
  64       30       61 1
  65       31       62 1
  66       32       63 1
  67       35       64 1
  68       35       65 1
  69       36       66 1
  70       36       67 1

@<TRIPOS>MOLECULE

  67   70
SMALL
USER_CHARGES
@<TRIPOS>ATOM
   1 C1           4.4306    -4.3477     4.7276 C.3          1    LIG   0.0000
   2 C2           3.3158    -3.6822     3.9372 C.3          1    LIG   0.0000
   3 C3           2.1724    -3.3278     4.8739 C.3          1    LIG   0.0000
   4 C4           3.8449    -2.4167     3.2821 C.3          1    LIG   0.0000
   5 O5           2.8034    -1.7950     2.5437 O.3          1    LIG   0.0000
   6 C6           3.1329    -0.6870     1.9273 C.2          1    LIG   0.0000
   7 O7           4.2529    -0.2644     2.0105 O.2          1    LIG   0.0000
   8 N8           2.1792     0.0034     1.1723 N.am         1    LIG   0.0000
   9 C9           0.8160    -0.5372     1.0881 C.3          1    LIG   0.0000
  10 C10          0.2714    -0.1581    -0.2794 C.3          1    LIG   0.0000
  11 N11          0.2887     1.3049    -0.4259 N.pl3        1    LIG   0.0000
  12 C12         -0.6183     1.9579    -1.2678 C.2          1    LIG   0.0000
  13 N13         -0.6985     3.2502    -1.4781 N.2          1    LIG   0.0000
  14 N14         -1.6833     3.4903    -2.3255 N.2          1    LIG   0.0000
  15 C15         -2.2426     2.3668    -2.6914 C.2          1    LIG   0.0000
  16 C16         -3.3498     2.2133    -3.6154 C.ar         1    LIG   0.0000
  17 C17         -3.5208     3.1342    -4.6437 C.ar         1    LIG   0.0000
  18 C18         -4.5858     2.9797    -5.5249 C.ar         1    LIG   0.0000
  19 C19         -5.4661     1.9127    -5.3730 C.ar         1    LIG   0.0000
  20 C20         -5.2873     0.9963    -4.3418 C.ar         1    LIG   0.0000
  21 C21         -4.2250     1.1439    -3.4557 C.ar         1    LIG   0.0000
  22 N22         -1.5882     1.3777    -2.0277 N.pl3        1    LIG   0.0000
  23 C23         -1.8716    -0.0603    -2.1236 C.3          1    LIG   0.0000
  24 C24         -2.8904    -0.4476    -1.0641 C.3          1    LIG   0.0000
  25 N25         -3.1741    -1.8868    -1.1601 N.am         1    LIG   0.0000
  26 C26         -2.3075    -2.7940    -0.6096 C.2          1    LIG   0.0000
  27 O27         -1.3170    -2.4137    -0.0490 O.2          1    LIG   0.0000
  28 C28         -2.5873    -4.2137    -0.7043 C.ar         1    LIG   0.0000
  29 N29         -3.6946    -4.6386    -1.3308 N.ar         1    LIG   1.0000
  30 C30         -3.9826    -5.9444    -1.4352 C.ar         1    LIG   0.0000
  31 C31         -3.1350    -6.9043    -0.8927 C.ar         1    LIG   0.0000
  32 C32         -1.9832    -6.4813    -0.2391 C.ar         1    LIG   0.0000
  33 C33         -1.6996    -5.1239    -0.1402 C.ar         1    LIG   0.0000
  34 O34         -0.5774    -4.7239     0.4958 O.3          1    LIG  -1.0000
  35 C35          1.2918     2.1015     0.2940 C.3          1    LIG   0.0000
  36 C36          2.5289     1.2318     0.4438 C.3          1    LIG   0.0000
  37 H           -4.3192    -3.9669    -1.7290 H            1    LIG   0.0000
  38 H            4.0826    -5.1802     5.1585 H            1    LIG   0.0000
  39 H            5.1829    -4.5808     4.1113 H            1    LIG   0.0000
  40 H            4.7599    -3.7199     5.4328 H            1    LIG   0.0000
  41 H            2.9866    -4.3100     3.2319 H            1    LIG   0.0000
  42 H            1.8243    -4.1604     5.3049 H            1    LIG   0.0000
  43 H            2.5017    -2.7000     5.5792 H            1    LIG   0.0000
  44 H            1.4390    -2.8900     4.3539 H            1    LIG   0.0000
  45 H            4.1741    -1.7889     3.9874 H            1    LIG   0.0000
  46 H            4.5971    -2.6499     2.6658 H            1    LIG   0.0000
  47 H            0.2446    -0.1414     1.8071 H            1    LIG   0.0000
  48 H            0.8344    -1.5321     1.1868 H            1    LIG   0.0000
  49 H            0.8401    -0.5710    -0.9908 H            1    LIG   0.0000
  50 H           -0.6674    -0.4909    -0.3682 H            1    LIG   0.0000
  51 H           -2.8850     3.8990    -4.7483 H            1    LIG   0.0000
  52 H           -4.7190     3.6357    -6.2679 H            1    LIG   0.0000
  53 H           -6.2309     1.8043    -6.0081 H            1    LIG   0.0000
  54 H           -5.9226     0.2311    -4.2375 H            1    LIG   0.0000
  55 H           -4.0921     0.4885    -2.7121 H            1    LIG   0.0000
  56 H           -1.0276    -0.5767    -1.9790 H            1    LIG   0.0000
  57 H           -2.2383    -0.2680    -3.0304 H            1    LIG   0.0000
  58 H           -2.5237    -0.2399    -0.1573 H            1    LIG   0.0000
  59 H           -3.7344     0.0688    -1.2087 H            1    LIG   0.0000
  60 H           -3.9995    -2.2037    -1.6272 H            1    LIG   0.0000
  61 H           -4.8158    -6.2308    -1.9083 H            1    LIG   0.0000
  62 H           -3.3495    -7.8779    -0.9711 H            1    LIG   0.0000
  63 H           -1.3590    -7.1531     0.1596 H            1    LIG   0.0000
  64 H            0.9428     2.3597     1.1948 H            1    LIG   0.0000
  65 H            1.5131     2.9261    -0.2267 H            1    LIG   0.0000
  66 H            2.8807     0.9938    -0.4615 H            1    LIG   0.0000
  67 H            3.2291     1.7330     0.9522 H            1    LIG   0.0000
@<TRIPOS>BOND
   1        1        2 1
   2        2        3 1
   3        2        4 1
   4        4        5 1
   5        5        6 1
   6        6        7 2
   7        6        8 am
   8        8        9 1
   9        9       10 1
  10       10       11 1
  11       11       12 1
  12       12       13 2
  13       13       14 1
  14       14       15 2
  15       15       16 1
  16       16       17 ar
  17       17       18 ar
  18       18       19 ar
  19       19       20 ar
  20       20       21 ar
  21       21       16 ar
  22       15       22 1
  23       22       12 1
  24       22       23 1
  25       23       24 1
  26       24       25 1
  27       25       26 am
  28       26       27 2
  29       26       28 1
  30       28       29 ar
  31       29       30 ar
  32       30       31 ar
  33       31       32 ar
  34       32       33 ar
  35       33       28 ar
  36       33       34 1
  37       11       35 1
  38       35       36 1
  39       36        8 1
  40       29       37 1
  41        1       38 1
  42        1       39 1
  43        1       40 1
  44        2       41 1
  45        3       42 1
  46        3       43 1
  47        3       44 1
  48        4       45 1
  49        4       46 1
  50        9       47 1
  51        9       48 1
  52       10       49 1
  53       10       50 1
  54       17       51 1
  55       18       52 1
  56       19       53 1
  57       20       54 1
  58       21       55 1
  59       23       56 1
  60       23       57 1
  61       24       58 1
  62       24       59 1
  63       25       60 1
  64       30       61 1
  65       31       62 1
  66       32       63 1
  67       35       64 1
  68       35       65 1
  69       36       66 1
  70       36       67 1

@<TRIPOS>MOLECULE

  67   70
SMALL
USER_CHARGES
@<TRIPOS>ATOM
   1 C1           5.8593    -3.8874     3.6651 C.3          1    LIG   0.0000
   2 C2           5.1466    -3.2234     2.4983 C.3          1    LIG   0.0000
   3 C3           4.8569    -4.2601     1.4251 C.3          1    LIG   0.0000
   4 C4           3.8398    -2.6163     2.9821 C.3          1    LIG   0.0000
   5 O5           3.1739    -1.9959     1.8921 O.3          1    LIG   0.0000
   6 C6           3.1329    -0.6870     1.9273 C.2          1    LIG   0.0000
   7 O7           3.9136    -0.0804     2.6074 O.2          1    LIG   0.0000
   8 N8           2.1792     0.0034     1.1723 N.am         1    LIG   0.0000
   9 C9           0.8160    -0.5372     1.0881 C.3          1    LIG   0.0000
  10 C10          0.2714    -0.1581    -0.2794 C.3          1    LIG   0.0000
  11 N11          0.2887     1.3049    -0.4259 N.pl3        1    LIG   0.0000
  12 C12         -0.6183     1.9579    -1.2678 C.2          1    LIG   0.0000
  13 N13         -0.6985     3.2502    -1.4781 N.2          1    LIG   0.0000
  14 N14         -1.6833     3.4903    -2.3255 N.2          1    LIG   0.0000
  15 C15         -2.2426     2.3668    -2.6914 C.2          1    LIG   0.0000
  16 C16         -3.3498     2.2133    -3.6154 C.ar         1    LIG   0.0000
  17 C17         -4.5709     2.8166    -3.3327 C.ar         1    LIG   0.0000
  18 C18         -5.6276     2.6635    -4.2241 C.ar         1    LIG   0.0000
  19 C19         -5.4571     1.9138    -5.3840 C.ar         1    LIG   0.0000
  20 C20         -4.2323     1.3142    -5.6588 C.ar         1    LIG   0.0000
  21 C21         -3.1704     1.4618    -4.7722 C.ar         1    LIG   0.0000
  22 N22         -1.5882     1.3777    -2.0277 N.pl3        1    LIG   0.0000
  23 C23         -1.8716    -0.0603    -2.1236 C.3          1    LIG   0.0000
  24 C24         -2.8904    -0.4476    -1.0641 C.3          1    LIG   0.0000
  25 N25         -3.1741    -1.8868    -1.1601 N.am         1    LIG   0.0000
  26 C26         -2.3075    -2.7940    -0.6096 C.2          1    LIG   0.0000
  27 O27         -1.3170    -2.4137    -0.0490 O.2          1    LIG   0.0000
  28 C28         -2.5873    -4.2137    -0.7043 C.ar         1    LIG   0.0000
  29 N29         -3.7129    -4.7123    -0.1717 N.ar         1    LIG   1.0000
  30 C30         -4.0010    -6.0203    -0.2416 C.ar         1    LIG   0.0000
  31 C31         -3.1344    -6.9057    -0.8736 C.ar         1    LIG   0.0000
  32 C32         -1.9627    -6.4059    -1.4305 C.ar         1    LIG   0.0000
  33 C33         -1.6797    -5.0472    -1.3493 C.ar         1    LIG   0.0000
  34 O34         -0.5392    -4.5720    -1.8948 O.3          1    LIG  -1.0000
  35 C35          1.2918     2.1015     0.2940 C.3          1    LIG   0.0000
  36 C36          2.5289     1.2318     0.4438 C.3          1    LIG   0.0000
  37 H           -4.3515    -4.0950     0.2878 H            1    LIG   0.0000
  38 H            6.7191    -4.2869     3.3468 H            1    LIG   0.0000
  39 H            6.0499    -3.2054     4.3711 H            1    LIG   0.0000
  40 H            5.2780    -4.6070     4.0450 H            1    LIG   0.0000
  41 H            5.7279    -2.5039     2.1184 H            1    LIG   0.0000
  42 H            5.7167    -4.6596     1.1068 H            1    LIG   0.0000
  43 H            4.2756    -4.9797     1.8050 H            1    LIG   0.0000
  44 H            4.3880    -3.8233     0.6575 H            1    LIG   0.0000
  45 H            3.2584    -3.3358     3.3620 H            1    LIG   0.0000
  46 H            4.0303    -1.9342     3.6881 H            1    LIG   0.0000
  47 H            0.2446    -0.1414     1.8071 H            1    LIG   0.0000
  48 H            0.8344    -1.5321     1.1868 H            1    LIG   0.0000
  49 H            0.8401    -0.5710    -0.9908 H            1    LIG   0.0000
  50 H           -0.6674    -0.4909    -0.3682 H            1    LIG   0.0000
  51 H           -4.6877     3.3544    -2.4978 H            1    LIG   0.0000
  52 H           -6.5101     3.0924    -4.0314 H            1    LIG   0.0000
  53 H           -6.2186     1.8056    -6.0230 H            1    LIG   0.0000
  54 H           -4.1151     0.7769    -6.4940 H            1    LIG   0.0000
  55 H           -2.2879     1.0324    -4.9643 H            1    LIG   0.0000
  56 H           -1.0276    -0.5767    -1.9790 H            1    LIG   0.0000
  57 H           -2.2383    -0.2680    -3.0304 H            1    LIG   0.0000
  58 H           -2.5237    -0.2399    -0.1573 H            1    LIG   0.0000
  59 H           -3.7344     0.0688    -1.2087 H            1    LIG   0.0000
  60 H           -3.9995    -2.2037    -1.6272 H            1    LIG   0.0000
  61 H           -4.8480    -6.3627     0.1650 H            1    LIG   0.0000
  62 H           -3.3494    -7.8809    -0.9262 H            1    LIG   0.0000
  63 H           -1.3239    -7.0234    -1.8894 H            1    LIG   0.0000
  64 H            0.9428     2.3597     1.1948 H            1    LIG   0.0000
  65 H            1.5131     2.9261    -0.2267 H            1    LIG   0.0000
  66 H            2.8807     0.9938    -0.4615 H            1    LIG   0.0000
  67 H            3.2291     1.7330     0.9522 H            1    LIG   0.0000
@<TRIPOS>BOND
   1        1        2 1
   2        2        3 1
   3        2        4 1
   4        4        5 1
   5        5        6 1
   6        6        7 2
   7        6        8 am
   8        8        9 1
   9        9       10 1
  10       10       11 1
  11       11       12 1
  12       12       13 2
  13       13       14 1
  14       14       15 2
  15       15       16 1
  16       16       17 ar
  17       17       18 ar
  18       18       19 ar
  19       19       20 ar
  20       20       21 ar
  21       21       16 ar
  22       15       22 1
  23       22       12 1
  24       22       23 1
  25       23       24 1
  26       24       25 1
  27       25       26 am
  28       26       27 2
  29       26       28 1
  30       28       29 ar
  31       29       30 ar
  32       30       31 ar
  33       31       32 ar
  34       32       33 ar
  35       33       28 ar
  36       33       34 1
  37       11       35 1
  38       35       36 1
  39       36        8 1
  40       29       37 1
  41        1       38 1
  42        1       39 1
  43        1       40 1
  44        2       41 1
  45        3       42 1
  46        3       43 1
  47        3       44 1
  48        4       45 1
  49        4       46 1
  50        9       47 1
  51        9       48 1
  52       10       49 1
  53       10       50 1
  54       17       51 1
  55       18       52 1
  56       19       53 1
  57       20       54 1
  58       21       55 1
  59       23       56 1
  60       23       57 1
  61       24       58 1
  62       24       59 1
  63       25       60 1
  64       30       61 1
  65       31       62 1
  66       32       63 1
  67       35       64 1
  68       35       65 1
  69       36       66 1
  70       36       67 1

@<TRIPOS>MOLECULE

  67   70
SMALL
USER_CHARGES
@<TRIPOS>ATOM
   1 C1           5.9939    -3.7766     3.0307 C.3          1    LIG   0.0000
   2 C2           5.0430    -3.0059     2.1295 C.3          1    LIG   0.0000
   3 C3           3.6087    -3.3690     2.4778 C.3          1    LIG   0.0000
   4 C4           5.2512    -1.5138     2.3314 C.3          1    LIG   0.0000
   5 O5           4.3629    -0.7937     1.4895 O.3          1    LIG   0.0000
   6 C6           3.1329    -0.6870     1.9273 C.2          1    LIG   0.0000
   7 O7           2.8244    -1.1816     2.9762 O.2          1    LIG   0.0000
   8 N8           2.1792     0.0034     1.1723 N.am         1    LIG   0.0000
   9 C9           0.8160    -0.5372     1.0881 C.3          1    LIG   0.0000
  10 C10          0.2714    -0.1581    -0.2794 C.3          1    LIG   0.0000
  11 N11          0.2887     1.3049    -0.4259 N.pl3        1    LIG   0.0000
  12 C12         -0.6183     1.9579    -1.2678 C.2          1    LIG   0.0000
  13 N13         -0.6985     3.2502    -1.4781 N.2          1    LIG   0.0000
  14 N14         -1.6833     3.4903    -2.3255 N.2          1    LIG   0.0000
  15 C15         -2.2426     2.3668    -2.6914 C.2          1    LIG   0.0000
  16 C16         -3.3498     2.2133    -3.6154 C.ar         1    LIG   0.0000
  17 C17         -3.5208     3.1342    -4.6437 C.ar         1    LIG   0.0000
  18 C18         -4.5858     2.9797    -5.5249 C.ar         1    LIG   0.0000
  19 C19         -5.4661     1.9127    -5.3730 C.ar         1    LIG   0.0000
  20 C20         -5.2873     0.9963    -4.3418 C.ar         1    LIG   0.0000
  21 C21         -4.2250     1.1439    -3.4557 C.ar         1    LIG   0.0000
  22 N22         -1.5882     1.3777    -2.0277 N.pl3        1    LIG   0.0000
  23 C23         -1.8716    -0.0603    -2.1236 C.3          1    LIG   0.0000
  24 C24         -2.8904    -0.4476    -1.0641 C.3          1    LIG   0.0000
  25 N25         -3.1741    -1.8868    -1.1601 N.am         1    LIG   0.0000
  26 C26         -2.3075    -2.7940    -0.6096 C.2          1    LIG   0.0000
  27 O27         -1.3170    -2.4137    -0.0490 O.2          1    LIG   0.0000
  28 C28         -2.5873    -4.2137    -0.7043 C.ar         1    LIG   0.0000
  29 N29         -2.6984    -4.7965    -1.9072 N.ar         1    LIG   1.0000
  30 C30         -2.9571    -6.1069    -2.0292 C.ar         1    LIG   0.0000
  31 C31         -3.1191    -6.9067    -0.9031 C.ar         1    LIG   0.0000
  32 C32         -3.0079    -6.3188     0.3518 C.ar         1    LIG   0.0000
  33 C33         -2.7391    -4.9590     0.4602 C.ar         1    LIG   0.0000
  34 O34         -2.6319    -4.3982     1.6841 O.3          1    LIG  -1.0000
  35 C35          1.2918     2.1015     0.2940 C.3          1    LIG   0.0000
  36 C36          2.5289     1.2318     0.4438 C.3          1    LIG   0.0000
  37 H           -2.5859    -4.2417    -2.7315 H            1    LIG   0.0000
  38 H            5.8569    -4.7582     2.8979 H            1    LIG   0.0000
  39 H            6.9375    -3.5377     2.8016 H            1    LIG   0.0000
  40 H            5.8128    -3.5410     3.9855 H            1    LIG   0.0000
  41 H            5.2241    -3.2415     1.1747 H            1    LIG   0.0000
  42 H            3.4717    -4.3506     2.3450 H            1    LIG   0.0000
  43 H            3.4276    -3.1333     3.4326 H            1    LIG   0.0000
  44 H            2.9831    -2.8619     1.8849 H            1    LIG   0.0000
  45 H            5.0702    -1.2781     3.2862 H            1    LIG   0.0000
  46 H            6.1949    -1.2749     2.1023 H            1    LIG   0.0000
  47 H            0.2446    -0.1414     1.8071 H            1    LIG   0.0000
  48 H            0.8344    -1.5321     1.1868 H            1    LIG   0.0000
  49 H            0.8401    -0.5710    -0.9908 H            1    LIG   0.0000
  50 H           -0.6674    -0.4909    -0.3682 H            1    LIG   0.0000
  51 H           -2.8850     3.8990    -4.7483 H            1    LIG   0.0000
  52 H           -4.7190     3.6357    -6.2679 H            1    LIG   0.0000
  53 H           -6.2309     1.8043    -6.0081 H            1    LIG   0.0000
  54 H           -5.9226     0.2311    -4.2375 H            1    LIG   0.0000
  55 H           -4.0921     0.4885    -2.7121 H            1    LIG   0.0000
  56 H           -1.0276    -0.5767    -1.9790 H            1    LIG   0.0000
  57 H           -2.2383    -0.2680    -3.0304 H            1    LIG   0.0000
  58 H           -2.5237    -0.2399    -0.1573 H            1    LIG   0.0000
  59 H           -3.7344     0.0688    -1.2087 H            1    LIG   0.0000
  60 H           -3.9995    -2.2037    -1.6272 H            1    LIG   0.0000
  61 H           -3.0343    -6.5131    -2.9397 H            1    LIG   0.0000
  62 H           -3.3114    -7.8839    -0.9940 H            1    LIG   0.0000
  63 H           -3.1211    -6.8736     1.1760 H            1    LIG   0.0000
  64 H            0.9428     2.3597     1.1948 H            1    LIG   0.0000
  65 H            1.5131     2.9261    -0.2267 H            1    LIG   0.0000
  66 H            2.8807     0.9938    -0.4615 H            1    LIG   0.0000
  67 H            3.2291     1.7330     0.9522 H            1    LIG   0.0000
@<TRIPOS>BOND
   1        1        2 1
   2        2        3 1
   3        2        4 1
   4        4        5 1
   5        5        6 1
   6        6        7 2
   7        6        8 am
   8        8        9 1
   9        9       10 1
  10       10       11 1
  11       11       12 1
  12       12       13 2
  13       13       14 1
  14       14       15 2
  15       15       16 1
  16       16       17 ar
  17       17       18 ar
  18       18       19 ar
  19       19       20 ar
  20       20       21 ar
  21       21       16 ar
  22       15       22 1
  23       22       12 1
  24       22       23 1
  25       23       24 1
  26       24       25 1
  27       25       26 am
  28       26       27 2
  29       26       28 1
  30       28       29 ar
  31       29       30 ar
  32       30       31 ar
  33       31       32 ar
  34       32       33 ar
  35       33       28 ar
  36       33       34 1
  37       11       35 1
  38       35       36 1
  39       36        8 1
  40       29       37 1
  41        1       38 1
  42        1       39 1
  43        1       40 1
  44        2       41 1
  45        3       42 1
  46        3       43 1
  47        3       44 1
  48        4       45 1
  49        4       46 1
  50        9       47 1
  51        9       48 1
  52       10       49 1
  53       10       50 1
  54       17       51 1
  55       18       52 1
  56       19       53 1
  57       20       54 1
  58       21       55 1
  59       23       56 1
  60       23       57 1
  61       24       58 1
  62       24       59 1
  63       25       60 1
  64       30       61 1
  65       31       62 1
  66       32       63 1
  67       35       64 1
  68       35       65 1
  69       36       66 1
  70       36       67 1

@<TRIPOS>MOLECULE

  67   70
SMALL
USER_CHARGES
@<TRIPOS>ATOM
   1 C1           4.6744    -2.9510     5.5597 C.3          1    LIG   0.0000
   2 C2           3.5596    -2.2855     4.7693 C.3          1    LIG   0.0000
   3 C3           3.4826    -0.8141     5.1426 C.3          1    LIG   0.0000
   4 C4           3.8449    -2.4167     3.2821 C.3          1    LIG   0.0000
   5 O5           2.8034    -1.7950     2.5437 O.3          1    LIG   0.0000
   6 C6           3.1329    -0.6870     1.9273 C.2          1    LIG   0.0000
   7 O7           4.2529    -0.2644     2.0105 O.2          1    LIG   0.0000
   8 N8           2.1792     0.0034     1.1723 N.am         1    LIG   0.0000
   9 C9           0.8160    -0.5372     1.0881 C.3          1    LIG   0.0000
  10 C10          0.2714    -0.1581    -0.2794 C.3          1    LIG   0.0000
  11 N11          0.2887     1.3049    -0.4259 N.pl3        1    LIG   0.0000
  12 C12         -0.6183     1.9579    -1.2678 C.2          1    LIG   0.0000
  13 N13         -0.6985     3.2502    -1.4781 N.2          1    LIG   0.0000
  14 N14         -1.6833     3.4903    -2.3255 N.2          1    LIG   0.0000
  15 C15         -2.2426     2.3668    -2.6914 C.2          1    LIG   0.0000
  16 C16         -3.3498     2.2133    -3.6154 C.ar         1    LIG   0.0000
  17 C17         -4.5709     2.8166    -3.3327 C.ar         1    LIG   0.0000
  18 C18         -5.6276     2.6635    -4.2241 C.ar         1    LIG   0.0000
  19 C19         -5.4571     1.9138    -5.3840 C.ar         1    LIG   0.0000
  20 C20         -4.2323     1.3142    -5.6588 C.ar         1    LIG   0.0000
  21 C21         -3.1704     1.4618    -4.7722 C.ar         1    LIG   0.0000
  22 N22         -1.5882     1.3777    -2.0277 N.pl3        1    LIG   0.0000
  23 C23         -1.8716    -0.0603    -2.1236 C.3          1    LIG   0.0000
  24 C24         -2.8904    -0.4476    -1.0641 C.3          1    LIG   0.0000
  25 N25         -3.1741    -1.8868    -1.1601 N.am         1    LIG   0.0000
  26 C26         -2.3075    -2.7940    -0.6096 C.2          1    LIG   0.0000
  27 O27         -1.3170    -2.4137    -0.0490 O.2          1    LIG   0.0000
  28 C28         -2.5873    -4.2137    -0.7043 C.ar         1    LIG   0.0000
  29 N29         -2.6984    -4.7965    -1.9072 N.ar         1    LIG   1.0000
  30 C30         -2.9571    -6.1069    -2.0292 C.ar         1    LIG   0.0000
  31 C31         -3.1191    -6.9067    -0.9031 C.ar         1    LIG   0.0000
  32 C32         -3.0079    -6.3188     0.3518 C.ar         1    LIG   0.0000
  33 C33         -2.7391    -4.9590     0.4602 C.ar         1    LIG   0.0000
  34 O34         -2.6319    -4.3982     1.6841 O.3          1    LIG  -1.0000
  35 C35          1.2918     2.1015     0.2940 C.3          1    LIG   0.0000
  36 C36          2.5289     1.2318     0.4438 C.3          1    LIG   0.0000
  37 H           -2.5859    -4.2417    -2.7315 H            1    LIG   0.0000
  38 H            4.4867    -2.8647     6.5381 H            1    LIG   0.0000
  39 H            4.7251    -3.9191     5.3141 H            1    LIG   0.0000
  40 H            5.5448    -2.5071     5.3468 H            1    LIG   0.0000
  41 H            2.6892    -2.7294     4.9822 H            1    LIG   0.0000
  42 H            3.2949    -0.7277     6.1210 H            1    LIG   0.0000
  43 H            4.3530    -0.3702     4.9297 H            1    LIG   0.0000
  44 H            2.7492    -0.3762     4.6226 H            1    LIG   0.0000
  45 H            4.7153    -1.9728     3.0692 H            1    LIG   0.0000
  46 H            3.8956    -3.3848     3.0365 H            1    LIG   0.0000
  47 H            0.2446    -0.1414     1.8071 H            1    LIG   0.0000
  48 H            0.8344    -1.5321     1.1868 H            1    LIG   0.0000
  49 H            0.8401    -0.5710    -0.9908 H            1    LIG   0.0000
  50 H           -0.6674    -0.4909    -0.3682 H            1    LIG   0.0000
  51 H           -4.6877     3.3544    -2.4978 H            1    LIG   0.0000
  52 H           -6.5101     3.0924    -4.0314 H            1    LIG   0.0000
  53 H           -6.2186     1.8056    -6.0230 H            1    LIG   0.0000
  54 H           -4.1151     0.7769    -6.4940 H            1    LIG   0.0000
  55 H           -2.2879     1.0324    -4.9643 H            1    LIG   0.0000
  56 H           -1.0276    -0.5767    -1.9790 H            1    LIG   0.0000
  57 H           -2.2383    -0.2680    -3.0304 H            1    LIG   0.0000
  58 H           -2.5237    -0.2399    -0.1573 H            1    LIG   0.0000
  59 H           -3.7344     0.0688    -1.2087 H            1    LIG   0.0000
  60 H           -3.9995    -2.2037    -1.6272 H            1    LIG   0.0000
  61 H           -3.0343    -6.5131    -2.9397 H            1    LIG   0.0000
  62 H           -3.3114    -7.8839    -0.9940 H            1    LIG   0.0000
  63 H           -3.1211    -6.8736     1.1760 H            1    LIG   0.0000
  64 H            0.9428     2.3597     1.1948 H            1    LIG   0.0000
  65 H            1.5131     2.9261    -0.2267 H            1    LIG   0.0000
  66 H            2.8807     0.9938    -0.4615 H            1    LIG   0.0000
  67 H            3.2291     1.7330     0.9522 H            1    LIG   0.0000
@<TRIPOS>BOND
   1        1        2 1
   2        2        3 1
   3        2        4 1
   4        4        5 1
   5        5        6 1
   6        6        7 2
   7        6        8 am
   8        8        9 1
   9        9       10 1
  10       10       11 1
  11       11       12 1
  12       12       13 2
  13       13       14 1
  14       14       15 2
  15       15       16 1
  16       16       17 ar
  17       17       18 ar
  18       18       19 ar
  19       19       20 ar
  20       20       21 ar
  21       21       16 ar
  22       15       22 1
  23       22       12 1
  24       22       23 1
  25       23       24 1
  26       24       25 1
  27       25       26 am
  28       26       27 2
  29       26       28 1
  30       28       29 ar
  31       29       30 ar
  32       30       31 ar
  33       31       32 ar
  34       32       33 ar
  35       33       28 ar
  36       33       34 1
  37       11       35 1
  38       35       36 1
  39       36        8 1
  40       29       37 1
  41        1       38 1
  42        1       39 1
  43        1       40 1
  44        2       41 1
  45        3       42 1
  46        3       43 1
  47        3       44 1
  48        4       45 1
  49        4       46 1
  50        9       47 1
  51        9       48 1
  52       10       49 1
  53       10       50 1
  54       17       51 1
  55       18       52 1
  56       19       53 1
  57       20       54 1
  58       21       55 1
  59       23       56 1
  60       23       57 1
  61       24       58 1
  62       24       59 1
  63       25       60 1
  64       30       61 1
  65       31       62 1
  66       32       63 1
  67       35       64 1
  68       35       65 1
  69       36       66 1
  70       36       67 1

@<TRIPOS>MOLECULE

  67   70
SMALL
USER_CHARGES
@<TRIPOS>ATOM
   1 C1           5.5337    -0.4679     5.5518 C.3          1    LIG   0.0000
   2 C2           4.7242     0.0512     4.3747 C.3          1    LIG   0.0000
   3 C3           5.0082     1.5314     4.1779 C.3          1    LIG   0.0000
   4 C4           5.1119    -0.7106     3.1178 C.3          1    LIG   0.0000
   5 O5           4.3556    -0.2257     2.0182 O.3          1    LIG   0.0000
   6 C6           3.1329    -0.6870     1.9273 C.2          1    LIG   0.0000
   7 O7           2.8311    -1.7020     2.4920 O.2          1    LIG   0.0000
   8 N8           2.1792     0.0034     1.1723 N.am         1    LIG   0.0000
   9 C9           0.8160    -0.5372     1.0881 C.3          1    LIG   0.0000
  10 C10          0.2714    -0.1581    -0.2794 C.3          1    LIG   0.0000
  11 N11          0.2887     1.3049    -0.4259 N.pl3        1    LIG   0.0000
  12 C12         -0.6183     1.9579    -1.2678 C.2          1    LIG   0.0000
  13 N13         -0.6985     3.2502    -1.4781 N.2          1    LIG   0.0000
  14 N14         -1.6833     3.4903    -2.3255 N.2          1    LIG   0.0000
  15 C15         -2.2426     2.3668    -2.6914 C.2          1    LIG   0.0000
  16 C16         -3.3498     2.2133    -3.6154 C.ar         1    LIG   0.0000
  17 C17         -3.5208     3.1342    -4.6437 C.ar         1    LIG   0.0000
  18 C18         -4.5858     2.9797    -5.5249 C.ar         1    LIG   0.0000
  19 C19         -5.4661     1.9127    -5.3730 C.ar         1    LIG   0.0000
  20 C20         -5.2873     0.9963    -4.3418 C.ar         1    LIG   0.0000
  21 C21         -4.2250     1.1439    -3.4557 C.ar         1    LIG   0.0000
  22 N22         -1.5882     1.3777    -2.0277 N.pl3        1    LIG   0.0000
  23 C23         -1.8716    -0.0603    -2.1236 C.3          1    LIG   0.0000
  24 C24         -2.8904    -0.4476    -1.0641 C.3          1    LIG   0.0000
  25 N25         -3.1741    -1.8868    -1.1601 N.am         1    LIG   0.0000
  26 C26         -2.3075    -2.7940    -0.6096 C.2          1    LIG   0.0000
  27 O27         -1.3170    -2.4137    -0.0490 O.2          1    LIG   0.0000
  28 C28         -2.5873    -4.2137    -0.7043 C.ar         1    LIG   0.0000
  29 N29         -2.3097    -4.8779    -1.8360 N.ar         1    LIG   1.0000
  30 C30         -2.5568    -6.1906    -1.9561 C.ar         1    LIG   0.0000
  31 C31         -3.1126    -6.9081    -0.9022 C.ar         1    LIG   0.0000
  32 C32         -3.4072    -6.2351     0.2781 C.ar         1    LIG   0.0000
  33 C33         -3.1445    -4.8742     0.3857 C.ar         1    LIG   0.0000
  34 O34         -3.4335    -4.2304     1.5372 O.3          1    LIG  -1.0000
  35 C35          1.2918     2.1015     0.2940 C.3          1    LIG   0.0000
  36 C36          2.5289     1.2318     0.4438 C.3          1    LIG   0.0000
  37 H           -1.9096    -4.3832    -2.6075 H            1    LIG   0.0000
  38 H            5.2786     0.0333     6.3787 H            1    LIG   0.0000
  39 H            5.3468    -1.4417     5.6813 H            1    LIG   0.0000
  40 H            6.5082    -0.3368     5.3698 H            1    LIG   0.0000
  41 H            3.7496    -0.0799     4.5566 H            1    LIG   0.0000
  42 H            4.7531     2.0326     5.0048 H            1    LIG   0.0000
  43 H            5.9827     1.6625     3.9959 H            1    LIG   0.0000
  44 H            4.4756     1.8729     3.4035 H            1    LIG   0.0000
  45 H            6.0864    -0.5795     2.9359 H            1    LIG   0.0000
  46 H            4.9250    -1.6844     3.2473 H            1    LIG   0.0000
  47 H            0.2446    -0.1414     1.8071 H            1    LIG   0.0000
  48 H            0.8344    -1.5321     1.1868 H            1    LIG   0.0000
  49 H            0.8401    -0.5710    -0.9908 H            1    LIG   0.0000
  50 H           -0.6674    -0.4909    -0.3682 H            1    LIG   0.0000
  51 H           -2.8850     3.8990    -4.7483 H            1    LIG   0.0000
  52 H           -4.7190     3.6357    -6.2679 H            1    LIG   0.0000
  53 H           -6.2309     1.8043    -6.0081 H            1    LIG   0.0000
  54 H           -5.9226     0.2311    -4.2375 H            1    LIG   0.0000
  55 H           -4.0921     0.4885    -2.7121 H            1    LIG   0.0000
  56 H           -1.0276    -0.5767    -1.9790 H            1    LIG   0.0000
  57 H           -2.2383    -0.2680    -3.0304 H            1    LIG   0.0000
  58 H           -2.5237    -0.2399    -0.1573 H            1    LIG   0.0000
  59 H           -3.7344     0.0688    -1.2087 H            1    LIG   0.0000
  60 H           -3.9995    -2.2037    -1.6272 H            1    LIG   0.0000
  61 H           -2.3391    -6.6586    -2.8126 H            1    LIG   0.0000
  62 H           -3.2963    -7.8870    -0.9915 H            1    LIG   0.0000
  63 H           -3.8080    -6.7298     1.0493 H            1    LIG   0.0000
  64 H            0.9428     2.3597     1.1948 H            1    LIG   0.0000
  65 H            1.5131     2.9261    -0.2267 H            1    LIG   0.0000
  66 H            2.8807     0.9938    -0.4615 H            1    LIG   0.0000
  67 H            3.2291     1.7330     0.9522 H            1    LIG   0.0000
@<TRIPOS>BOND
   1        1        2 1
   2        2        3 1
   3        2        4 1
   4        4        5 1
   5        5        6 1
   6        6        7 2
   7        6        8 am
   8        8        9 1
   9        9       10 1
  10       10       11 1
  11       11       12 1
  12       12       13 2
  13       13       14 1
  14       14       15 2
  15       15       16 1
  16       16       17 ar
  17       17       18 ar
  18       18       19 ar
  19       19       20 ar
  20       20       21 ar
  21       21       16 ar
  22       15       22 1
  23       22       12 1
  24       22       23 1
  25       23       24 1
  26       24       25 1
  27       25       26 am
  28       26       27 2
  29       26       28 1
  30       28       29 ar
  31       29       30 ar
  32       30       31 ar
  33       31       32 ar
  34       32       33 ar
  35       33       28 ar
  36       33       34 1
  37       11       35 1
  38       35       36 1
  39       36        8 1
  40       29       37 1
  41        1       38 1
  42        1       39 1
  43        1       40 1
  44        2       41 1
  45        3       42 1
  46        3       43 1
  47        3       44 1
  48        4       45 1
  49        4       46 1
  50        9       47 1
  51        9       48 1
  52       10       49 1
  53       10       50 1
  54       17       51 1
  55       18       52 1
  56       19       53 1
  57       20       54 1
  58       21       55 1
  59       23       56 1
  60       23       57 1
  61       24       58 1
  62       24       59 1
  63       25       60 1
  64       30       61 1
  65       31       62 1
  66       32       63 1
  67       35       64 1
  68       35       65 1
  69       36       66 1
  70       36       67 1

@<TRIPOS>MOLECULE

  67   70
SMALL
USER_CHARGES
@<TRIPOS>ATOM
   1 C1           7.7295    -1.8111     2.2100 C.3          1    LIG   0.0000
   2 C2           6.6768    -0.7972     1.7923 C.3          1    LIG   0.0000
   3 C3           6.5530    -0.7902     0.2774 C.3          1    LIG   0.0000
   4 C4           5.3390    -1.1729     2.4083 C.3          1    LIG   0.0000
   5 O5           4.3556    -0.2257     2.0182 O.3          1    LIG   0.0000
   6 C6           3.1329    -0.6870     1.9273 C.2          1    LIG   0.0000
   7 O7           2.8311    -1.7020     2.4920 O.2          1    LIG   0.0000
   8 N8           2.1792     0.0034     1.1723 N.am         1    LIG   0.0000
   9 C9           0.8160    -0.5372     1.0881 C.3          1    LIG   0.0000
  10 C10          0.2714    -0.1581    -0.2794 C.3          1    LIG   0.0000
  11 N11          0.2887     1.3049    -0.4259 N.pl3        1    LIG   0.0000
  12 C12         -0.6183     1.9579    -1.2678 C.2          1    LIG   0.0000
  13 N13         -0.6985     3.2502    -1.4781 N.2          1    LIG   0.0000
  14 N14         -1.6833     3.4903    -2.3255 N.2          1    LIG   0.0000
  15 C15         -2.2426     2.3668    -2.6914 C.2          1    LIG   0.0000
  16 C16         -3.3498     2.2133    -3.6154 C.ar         1    LIG   0.0000
  17 C17         -4.5709     2.8166    -3.3327 C.ar         1    LIG   0.0000
  18 C18         -5.6276     2.6635    -4.2241 C.ar         1    LIG   0.0000
  19 C19         -5.4571     1.9138    -5.3840 C.ar         1    LIG   0.0000
  20 C20         -4.2323     1.3142    -5.6588 C.ar         1    LIG   0.0000
  21 C21         -3.1704     1.4618    -4.7722 C.ar         1    LIG   0.0000
  22 N22         -1.5882     1.3777    -2.0277 N.pl3        1    LIG   0.0000
  23 C23         -1.8716    -0.0603    -2.1236 C.3          1    LIG   0.0000
  24 C24         -2.8904    -0.4476    -1.0641 C.3          1    LIG   0.0000
  25 N25         -3.1741    -1.8868    -1.1601 N.am         1    LIG   0.0000
  26 C26         -2.3075    -2.7940    -0.6096 C.2          1    LIG   0.0000
  27 O27         -1.3170    -2.4137    -0.0490 O.2          1    LIG   0.0000
  28 C28         -2.5873    -4.2137    -0.7043 C.ar         1    LIG   0.0000
  29 N29         -2.3097    -4.8779    -1.8360 N.ar         1    LIG   1.0000
  30 C30         -2.5568    -6.1906    -1.9561 C.ar         1    LIG   0.0000
  31 C31         -3.1126    -6.9081    -0.9022 C.ar         1    LIG   0.0000
  32 C32         -3.4072    -6.2351     0.2781 C.ar         1    LIG   0.0000
  33 C33         -3.1445    -4.8742     0.3857 C.ar         1    LIG   0.0000
  34 O34         -3.4335    -4.2304     1.5372 O.3          1    LIG  -1.0000
  35 C35          1.2918     2.1015     0.2940 C.3          1    LIG   0.0000
  36 C36          2.5289     1.2318     0.4438 C.3          1    LIG   0.0000
  37 H           -1.9096    -4.3832    -2.6075 H            1    LIG   0.0000
  38 H            8.6096    -1.5639     1.8047 H            1    LIG   0.0000
  39 H            7.8109    -1.8157     3.2066 H            1    LIG   0.0000
  40 H            7.4603    -2.7206     1.8933 H            1    LIG   0.0000
  41 H            6.9459     0.1124     2.1090 H            1    LIG   0.0000
  42 H            7.4332    -0.5430    -0.1279 H            1    LIG   0.0000
  43 H            6.2839    -1.6998    -0.0393 H            1    LIG   0.0000
  44 H            5.8605    -0.1232     0.0026 H            1    LIG   0.0000
  45 H            5.0699    -2.0824     2.0917 H            1    LIG   0.0000
  46 H            5.4204    -1.1775     3.4050 H            1    LIG   0.0000
  47 H            0.2446    -0.1414     1.8071 H            1    LIG   0.0000
  48 H            0.8344    -1.5321     1.1868 H            1    LIG   0.0000
  49 H            0.8401    -0.5710    -0.9908 H            1    LIG   0.0000
  50 H           -0.6674    -0.4909    -0.3682 H            1    LIG   0.0000
  51 H           -4.6877     3.3544    -2.4978 H            1    LIG   0.0000
  52 H           -6.5101     3.0924    -4.0314 H            1    LIG   0.0000
  53 H           -6.2186     1.8056    -6.0230 H            1    LIG   0.0000
  54 H           -4.1151     0.7769    -6.4940 H            1    LIG   0.0000
  55 H           -2.2879     1.0324    -4.9643 H            1    LIG   0.0000
  56 H           -1.0276    -0.5767    -1.9790 H            1    LIG   0.0000
  57 H           -2.2383    -0.2680    -3.0304 H            1    LIG   0.0000
  58 H           -2.5237    -0.2399    -0.1573 H            1    LIG   0.0000
  59 H           -3.7344     0.0688    -1.2087 H            1    LIG   0.0000
  60 H           -3.9995    -2.2037    -1.6272 H            1    LIG   0.0000
  61 H           -2.3391    -6.6586    -2.8126 H            1    LIG   0.0000
  62 H           -3.2963    -7.8870    -0.9915 H            1    LIG   0.0000
  63 H           -3.8080    -6.7298     1.0493 H            1    LIG   0.0000
  64 H            0.9428     2.3597     1.1948 H            1    LIG   0.0000
  65 H            1.5131     2.9261    -0.2267 H            1    LIG   0.0000
  66 H            2.8807     0.9938    -0.4615 H            1    LIG   0.0000
  67 H            3.2291     1.7330     0.9522 H            1    LIG   0.0000
@<TRIPOS>BOND
   1        1        2 1
   2        2        3 1
   3        2        4 1
   4        4        5 1
   5        5        6 1
   6        6        7 2
   7        6        8 am
   8        8        9 1
   9        9       10 1
  10       10       11 1
  11       11       12 1
  12       12       13 2
  13       13       14 1
  14       14       15 2
  15       15       16 1
  16       16       17 ar
  17       17       18 ar
  18       18       19 ar
  19       19       20 ar
  20       20       21 ar
  21       21       16 ar
  22       15       22 1
  23       22       12 1
  24       22       23 1
  25       23       24 1
  26       24       25 1
  27       25       26 am
  28       26       27 2
  29       26       28 1
  30       28       29 ar
  31       29       30 ar
  32       30       31 ar
  33       31       32 ar
  34       32       33 ar
  35       33       28 ar
  36       33       34 1
  37       11       35 1
  38       35       36 1
  39       36        8 1
  40       29       37 1
  41        1       38 1
  42        1       39 1
  43        1       40 1
  44        2       41 1
  45        3       42 1
  46        3       43 1
  47        3       44 1
  48        4       45 1
  49        4       46 1
  50        9       47 1
  51        9       48 1
  52       10       49 1
  53       10       50 1
  54       17       51 1
  55       18       52 1
  56       19       53 1
  57       20       54 1
  58       21       55 1
  59       23       56 1
  60       23       57 1
  61       24       58 1
  62       24       59 1
  63       25       60 1
  64       30       61 1
  65       31       62 1
  66       32       63 1
  67       35       64 1
  68       35       65 1
  69       36       66 1
  70       36       67 1

