@<TRIPOS>MOLECULE
*****
 67 70 0 0 0
SMALL
USER_CHARGES

@<TRIPOS>ATOM
      1 C1          4.6744   -2.9510    5.5597 C.3     1  LIG1        0.0000
      2 C2          3.5596   -2.2855    4.7693 C.3     1  LIG1        0.0000
      3 C3          3.4826   -0.8141    5.1426 C.3     1  LIG1        0.0000
      4 C4          3.8449   -2.4167    3.2821 C.3     1  LIG1        0.0000
      5 O5          2.8034   -1.7950    2.5437 O.3     1  LIG1        0.0000
      6 C6          3.1329   -0.6870    1.9273 C.2     1  LIG1        0.0000
      7 O7          4.2529   -0.2644    2.0105 O.2     1  LIG1        0.0000
      8 N8          2.1792    0.0034    1.1723 N.am    1  LIG1        0.0000
      9 C9          0.8160   -0.5372    1.0881 C.3     1  LIG1        0.0000
     10 C10         0.2714   -0.1581   -0.2794 C.3     1  LIG1        0.0000
     11 N11         0.2887    1.3049   -0.4259 N.pl3   1  LIG1        0.0000
     12 C12        -0.6183    1.9579   -1.2678 C.cat   1  LIG1        0.0000
     13 N13        -0.6985    3.2502   -1.4781 N.2     1  LIG1        0.0000
     14 N14        -1.6833    3.4903   -2.3255 N.2     1  LIG1        0.0000
     15 C15        -2.2426    2.3668   -2.6914 C.2     1  LIG1        0.0000
     16 C16        -3.3498    2.2133   -3.6154 C.3     1  LIG1        0.0000
     17 C17        -4.5709    2.8166   -3.3327 C.3     1  LIG1        0.0000
     18 C18        -5.6276    2.6635   -4.2241 C.3     1  LIG1        0.0000
     19 C19        -5.4571    1.9138   -5.3840 C.3     1  LIG1        0.0000
     20 C20        -4.2323    1.3142   -5.6588 C.3     1  LIG1        0.0000
     21 C21        -3.1704    1.4618   -4.7722 C.3     1  LIG1        0.0000
     22 N22        -1.5882    1.3777   -2.0277 N.pl3   1  LIG1        0.0000
     23 C23        -1.8716   -0.0603   -2.1236 C.3     1  LIG1        0.0000
     24 C24        -2.8904   -0.4476   -1.0641 C.3     1  LIG1        0.0000
     25 N25        -3.1741   -1.8868   -1.1601 N.am    1  LIG1        0.0000
     26 C26        -2.3075   -2.7940   -0.6096 C.2     1  LIG1        0.0000
     27 O27        -1.3170   -2.4137   -0.0490 O.2     1  LIG1        0.0000
     28 C28        -2.5873   -4.2137   -0.7043 C.3     1  LIG1        0.0000
     29 N29        -2.6984   -4.7965   -1.9072 N.pl3   1  LIG1        1.0000
     30 C30        -2.9571   -6.1069   -2.0292 C.3     1  LIG1        0.0000
     31 C31        -3.1191   -6.9067   -0.9031 C.3     1  LIG1        0.0000
     32 C32        -3.0079   -6.3188    0.3518 C.3     1  LIG1        0.0000
     33 C33        -2.7391   -4.9590    0.4602 C.3     1  LIG1        0.0000
     34 O34        -2.6319   -4.3982    1.6841 O.2     1  LIG1       -1.0000
     35 C35         1.2918    2.1015    0.2940 C.3     1  LIG1        0.0000
     36 C36         2.5289    1.2318    0.4438 C.3     1  LIG1        0.0000
     37 H          -2.5859   -4.2417   -2.7315 H       1  LIG1        0.0000
     38 H           4.4867   -2.8647    6.5381 H       1  LIG1        0.0000
     39 H           4.7251   -3.9191    5.3141 H       1  LIG1        0.0000
     40 H           5.5448   -2.5071    5.3468 H       1  LIG1        0.0000
     41 H           2.6892   -2.7294    4.9822 H       1  LIG1        0.0000
     42 H           3.2949   -0.7277    6.1210 H       1  LIG1        0.0000
     43 H           4.3530   -0.3702    4.9297 H       1  LIG1        0.0000
     44 H           2.7492   -0.3762    4.6226 H       1  LIG1        0.0000
     45 H           4.7153   -1.9728    3.0692 H       1  LIG1        0.0000
     46 H           3.8956   -3.3848    3.0365 H       1  LIG1        0.0000
     47 H           0.2446   -0.1414    1.8071 H       1  LIG1        0.0000
     48 H           0.8344   -1.5321    1.1868 H       1  LIG1        0.0000
     49 H           0.8401   -0.5710   -0.9908 H       1  LIG1        0.0000
     50 H          -0.6674   -0.4909   -0.3682 H       1  LIG1        0.0000
     51 H          -4.6877    3.3544   -2.4978 H       1  LIG1        0.0000
     52 H          -6.5101    3.0924   -4.0314 H       1  LIG1        0.0000
     53 H          -6.2186    1.8056   -6.0230 H       1  LIG1        0.0000
     54 H          -4.1151    0.7769   -6.4940 H       1  LIG1        0.0000
     55 H          -2.2879    1.0324   -4.9643 H       1  LIG1        0.0000
     56 H          -1.0276   -0.5767   -1.9790 H       1  LIG1        0.0000
     57 H          -2.2383   -0.2680   -3.0304 H       1  LIG1        0.0000
     58 H          -2.5237   -0.2399   -0.1573 H       1  LIG1        0.0000
     59 H          -3.7344    0.0688   -1.2087 H       1  LIG1        0.0000
     60 H          -3.9995   -2.2037   -1.6272 H       1  LIG1        0.0000
     61 H          -3.0343   -6.5131   -2.9397 H       1  LIG1        0.0000
     62 H          -3.3114   -7.8839   -0.9940 H       1  LIG1        0.0000
     63 H          -3.1211   -6.8736    1.1760 H       1  LIG1        0.0000
     64 H           0.9428    2.3597    1.1948 H       1  LIG1        0.0000
     65 H           1.5131    2.9261   -0.2267 H       1  LIG1        0.0000
     66 H           2.8807    0.9938   -0.4615 H       1  LIG1        0.0000
     67 H           3.2291    1.7330    0.9522 H       1  LIG1        0.0000
@<TRIPOS>UNITY_ATOM_ATTR
34 1
charge -1
@<TRIPOS>BOND
     1     1     2    1
     2     2     3    1
     3     2     4    1
     4     4     5    1
     5     5     6    1
     6     6     7    2
     7     6     8   am
     8     8     9    1
     9     9    10    1
    10    10    11    1
    11    11    12    1
    12    12    13    2
    13    13    14    1
    14    14    15    2
    15    15    16    1
    16    16    17   ar
    17    17    18   ar
    18    18    19   ar
    19    19    20   ar
    20    20    21   ar
    21    21    16   ar
    22    15    22    1
    23    22    12    1
    24    22    23    1
    25    23    24    1
    26    24    25    1
    27    25    26   am
    28    26    27    2
    29    26    28    1
    30    28    29   ar
    31    29    30   ar
    32    30    31   ar
    33    31    32   ar
    34    32    33   ar
    35    33    28   ar
    36    33    34    1
    37    11    35    1
    38    35    36    1
    39    36     8    1
    40    29    37    1
    41     1    38    1
    42     1    39    1
    43     1    40    1
    44     2    41    1
    45     3    42    1
    46     3    43    1
    47     3    44    1
    48     4    45    1
    49     4    46    1
    50     9    47    1
    51     9    48    1
    52    10    49    1
    53    10    50    1
    54    17    51    1
    55    18    52    1
    56    19    53    1
    57    20    54    1
    58    21    55    1
    59    23    56    1
    60    23    57    1
    61    24    58    1
    62    24    59    1
    63    25    60    1
    64    30    61    1
    65    31    62    1
    66    32    63    1
    67    35    64    1
    68    35    65    1
    69    36    66    1
    70    36    67    1
