@<TRIPOS>MOLECULE

  31   32
SMALL
USER_CHARGES
@<TRIPOS>ATOM
   1 F1          -2.2922    -0.5394     4.9259 F            1    LIG   0.0000
   2 C2          -2.2195    -1.4111     3.9241 C.3          1    LIG   0.0000
   3 F3          -3.3103    -1.3115     3.1697 F            1    LIG   0.0000
   4 C4          -0.9910    -1.1120     3.0804 C.2          1    LIG   0.0000
   5 C5           0.0894    -1.9854     2.8419 C.2          1    LIG   0.0000
   6 C6           0.9458    -1.2951     2.0410 C.2          1    LIG   0.0000
   7 C7           2.2730    -1.8023     1.4999 C.3          1    LIG   0.0000
   8 F8           2.2113    -3.1211     1.3392 F            1    LIG   0.0000
   9 F9           2.5243    -1.2242     0.3288 F            1    LIG   0.0000
  10 N10          0.4030    -0.0674     1.8157 N.pl3        1    LIG   0.0000
  11 C11          1.0000     1.0000     1.0000 C.3          1    LIG   0.0000
  12 C12          1.8779     1.8779     1.8779 C.ar         1    LIG   0.0000
  13 C13          1.3257     2.9857     2.5110 C.ar         1    LIG   0.0000
  14 C14          2.1209     3.7956     3.3153 C.ar         1    LIG   0.0000
  15 C15          3.4663     3.4808     3.4747 C.ar         1    LIG   0.0000
  16 C16          4.3400     4.3608     4.3533 C.3          1    LIG   0.0000
  17 F17          4.0811     4.1062     5.6328 F            1    LIG   0.0000
  18 F18          5.6209     4.1065     4.1010 F            1    LIG   0.0000
  19 F19          4.0827     5.6398     4.0949 F            1    LIG   0.0000
  20 C20          4.0280     2.3744     2.8458 C.ar         1    LIG   0.0000
  21 C21          3.2247     1.5703     2.0441 C.ar         1    LIG   0.0000
  22 N22         -0.7458     0.0090     2.4455 N.2          1    LIG   0.0000
  23 H           -2.1528    -2.3381     4.2930 H            1    LIG   0.0000
  24 H            0.2026    -2.9166     3.1885 H            1    LIG   0.0000
  25 H            3.0033    -1.5790     2.1454 H            1    LIG   0.0000
  26 H            0.2739     1.5549     0.5939 H            1    LIG   0.0000
  27 H            1.5549     0.5939     0.2739 H            1    LIG   0.0000
  28 H            0.3567     3.2003     2.3882 H            1    LIG   0.0000
  29 H            1.7302     4.5941     3.7731 H            1    LIG   0.0000
  30 H            4.9970     2.1599     2.9685 H            1    LIG   0.0000
  31 H            3.6151     0.7710     1.5872 H            1    LIG   0.0000
@<TRIPOS>BOND
   1        1        2 1
   2        2        3 1
   3        2        4 1
   4        4        5 1
   5        5        6 2
   6        6        7 1
   7        7        8 1
   8        7        9 1
   9        6       10 1
  10       10       11 1
  11       11       12 1
  12       12       13 ar
  13       13       14 ar
  14       14       15 ar
  15       15       16 1
  16       16       17 1
  17       16       18 1
  18       16       19 1
  19       15       20 ar
  20       20       21 ar
  21       21       12 ar
  22       10       22 1
  23       22        4 2
  24        2       23 1
  25        5       24 1
  26        7       25 1
  27       11       26 1
  28       11       27 1
  29       13       28 1
  30       14       29 1
  31       20       30 1
  32       21       31 1

@<TRIPOS>MOLECULE

  31   32
SMALL
USER_CHARGES
@<TRIPOS>ATOM
   1 F1          -2.3371    -0.2025     4.8148 F            1    LIG   0.0000
   2 C2          -1.5306    -1.2462     4.6440 C.3          1    LIG   0.0000
   3 F3          -2.2581    -2.3520     4.5138 F            1    LIG   0.0000
   4 C4          -0.6934    -1.0401     3.3922 C.2          1    LIG   0.0000
   5 C5          -0.1904    -2.0522     2.5498 C.2          1    LIG   0.0000
   6 C6           0.4922    -1.4028     1.5681 C.2          1    LIG   0.0000
   7 C7           1.2272    -2.0528     0.4067 C.3          1    LIG   0.0000
   8 F8           2.2587    -1.2913     0.0529 F            1    LIG   0.0000
   9 F9           1.6677    -3.2521     0.7763 F            1    LIG   0.0000
  10 N10          0.4030    -0.0674     1.8157 N.pl3        1    LIG   0.0000
  11 C11          1.0000     1.0000     1.0000 C.3          1    LIG   0.0000
  12 C12          1.8779     1.8779     1.8779 C.ar         1    LIG   0.0000
  13 C13          1.3257     2.9857     2.5110 C.ar         1    LIG   0.0000
  14 C14          2.1209     3.7956     3.3153 C.ar         1    LIG   0.0000
  15 C15          3.4663     3.4808     3.4747 C.ar         1    LIG   0.0000
  16 C16          4.3400     4.3608     4.3533 C.3          1    LIG   0.0000
  17 F17          4.0811     4.1062     5.6328 F            1    LIG   0.0000
  18 F18          5.6209     4.1065     4.1010 F            1    LIG   0.0000
  19 F19          4.0827     5.6398     4.0949 F            1    LIG   0.0000
  20 C20          4.0280     2.3744     2.8458 C.ar         1    LIG   0.0000
  21 C21          3.2247     1.5703     2.0441 C.ar         1    LIG   0.0000
  22 N22         -0.3073     0.1142     2.9041 N.2          1    LIG   0.0000
  23 H           -0.9280    -1.3351     5.4371 H            1    LIG   0.0000
  24 H           -0.3101    -3.0397     2.6521 H            1    LIG   0.0000
  25 H            0.6040    -2.1511    -0.3691 H            1    LIG   0.0000
  26 H            0.2739     1.5549     0.5939 H            1    LIG   0.0000
  27 H            1.5549     0.5939     0.2739 H            1    LIG   0.0000
  28 H            0.3567     3.2003     2.3882 H            1    LIG   0.0000
  29 H            1.7302     4.5941     3.7731 H            1    LIG   0.0000
  30 H            4.9970     2.1599     2.9685 H            1    LIG   0.0000
  31 H            3.6151     0.7710     1.5872 H            1    LIG   0.0000
@<TRIPOS>BOND
   1        1        2 1
   2        2        3 1
   3        2        4 1
   4        4        5 1
   5        5        6 2
   6        6        7 1
   7        7        8 1
   8        7        9 1
   9        6       10 1
  10       10       11 1
  11       11       12 1
  12       12       13 ar
  13       13       14 ar
  14       14       15 ar
  15       15       16 1
  16       16       17 1
  17       16       18 1
  18       16       19 1
  19       15       20 ar
  20       20       21 ar
  21       21       12 ar
  22       10       22 1
  23       22        4 2
  24        2       23 1
  25        5       24 1
  26        7       25 1
  27       11       26 1
  28       11       27 1
  29       13       28 1
  30       14       29 1
  31       20       30 1
  32       21       31 1

@<TRIPOS>MOLECULE

  31   32
SMALL
USER_CHARGES
@<TRIPOS>ATOM
   1 F1          -1.2125    -2.4101     5.2035 F            1    LIG   0.0000
   2 C2          -1.5306    -1.2462     4.6440 C.3          1    LIG   0.0000
   3 F3          -1.2915    -0.2606     5.5045 F            1    LIG   0.0000
   4 C4          -0.6934    -1.0401     3.3922 C.2          1    LIG   0.0000
   5 C5          -0.1904    -2.0522     2.5498 C.2          1    LIG   0.0000
   6 C6           0.4922    -1.4028     1.5681 C.2          1    LIG   0.0000
   7 C7           1.2272    -2.0528     0.4067 C.3          1    LIG   0.0000
   8 F8           0.6244    -3.1933     0.0831 F            1    LIG   0.0000
   9 F9           1.2154    -1.2326    -0.6402 F            1    LIG   0.0000
  10 N10          0.4030    -0.0674     1.8157 N.pl3        1    LIG   0.0000
  11 C11          1.0000     1.0000     1.0000 C.3          1    LIG   0.0000
  12 C12          1.8779     1.8779     1.8779 C.ar         1    LIG   0.0000
  13 C13          1.3257     2.9857     2.5110 C.ar         1    LIG   0.0000
  14 C14          2.1209     3.7956     3.3153 C.ar         1    LIG   0.0000
  15 C15          3.4663     3.4808     3.4747 C.ar         1    LIG   0.0000
  16 C16          4.3400     4.3608     4.3533 C.3          1    LIG   0.0000
  17 F17          4.0811     4.1062     5.6328 F            1    LIG   0.0000
  18 F18          5.6209     4.1065     4.1010 F            1    LIG   0.0000
  19 F19          4.0827     5.6398     4.0949 F            1    LIG   0.0000
  20 C20          4.0280     2.3744     2.8458 C.ar         1    LIG   0.0000
  21 C21          3.2247     1.5703     2.0441 C.ar         1    LIG   0.0000
  22 N22         -0.3073     0.1142     2.9041 N.2          1    LIG   0.0000
  23 H           -2.5004    -1.2477     4.4000 H            1    LIG   0.0000
  24 H           -0.3101    -3.0397     2.6521 H            1    LIG   0.0000
  25 H            2.1728    -2.2395     0.6732 H            1    LIG   0.0000
  26 H            0.2739     1.5549     0.5939 H            1    LIG   0.0000
  27 H            1.5549     0.5939     0.2739 H            1    LIG   0.0000
  28 H            0.3567     3.2003     2.3882 H            1    LIG   0.0000
  29 H            1.7302     4.5941     3.7731 H            1    LIG   0.0000
  30 H            4.9970     2.1599     2.9685 H            1    LIG   0.0000
  31 H            3.6151     0.7710     1.5872 H            1    LIG   0.0000
@<TRIPOS>BOND
   1        1        2 1
   2        2        3 1
   3        2        4 1
   4        4        5 1
   5        5        6 2
   6        6        7 1
   7        7        8 1
   8        7        9 1
   9        6       10 1
  10       10       11 1
  11       11       12 1
  12       12       13 ar
  13       13       14 ar
  14       14       15 ar
  15       15       16 1
  16       16       17 1
  17       16       18 1
  18       16       19 1
  19       15       20 ar
  20       20       21 ar
  21       21       12 ar
  22       10       22 1
  23       22        4 2
  24        2       23 1
  25        5       24 1
  26        7       25 1
  27       11       26 1
  28       11       27 1
  29       13       28 1
  30       14       29 1
  31       20       30 1
  32       21       31 1

@<TRIPOS>MOLECULE

  31   32
SMALL
USER_CHARGES
@<TRIPOS>ATOM
   1 F1           0.5288    -4.1886     2.2156 F            1    LIG   0.0000
   2 C2           0.4175    -3.3859     3.2701 C.3          1    LIG   0.0000
   3 F3           1.5472    -3.4159     3.9714 F            1    LIG   0.0000
   4 C4           0.1509    -1.9653     2.7996 C.2          1    LIG   0.0000
   5 C5          -0.9807    -1.1834     3.1081 C.2          1    LIG   0.0000
   6 C6          -0.7864     0.0045     2.4737 C.2          1    LIG   0.0000
   7 C7          -1.7310     1.1956     2.4921 C.3          1    LIG   0.0000
   8 F8          -1.6179     1.8689     1.3507 F            1    LIG   0.0000
   9 F9          -2.9823     0.7670     2.6319 F            1    LIG   0.0000
  10 N10          0.4030    -0.0674     1.8157 N.pl3        1    LIG   0.0000
  11 C11          1.0000     1.0000     1.0000 C.3          1    LIG   0.0000
  12 C12          1.8779     1.8779     1.8779 C.ar         1    LIG   0.0000
  13 C13          1.3257     2.9857     2.5110 C.ar         1    LIG   0.0000
  14 C14          2.1209     3.7956     3.3153 C.ar         1    LIG   0.0000
  15 C15          3.4663     3.4808     3.4747 C.ar         1    LIG   0.0000
  16 C16          4.3400     4.3608     4.3533 C.3          1    LIG   0.0000
  17 F17          4.0811     4.1062     5.6328 F            1    LIG   0.0000
  18 F18          5.6209     4.1065     4.1010 F            1    LIG   0.0000
  19 F19          4.0827     5.6398     4.0949 F            1    LIG   0.0000
  20 C20          4.0280     2.3744     2.8458 C.ar         1    LIG   0.0000
  21 C21          3.2247     1.5703     2.0441 C.ar         1    LIG   0.0000
  22 N22          0.9339    -1.2482     2.0299 N.2          1    LIG   0.0000
  23 H           -0.3402    -3.6942     3.8453 H            1    LIG   0.0000
  24 H           -1.7619    -1.4465     3.6742 H            1    LIG   0.0000
  25 H           -1.4966     1.7952     3.2573 H            1    LIG   0.0000
  26 H            0.2739     1.5549     0.5939 H            1    LIG   0.0000
  27 H            1.5549     0.5939     0.2739 H            1    LIG   0.0000
  28 H            0.3567     3.2003     2.3882 H            1    LIG   0.0000
  29 H            1.7302     4.5941     3.7731 H            1    LIG   0.0000
  30 H            4.9970     2.1599     2.9685 H            1    LIG   0.0000
  31 H            3.6151     0.7710     1.5872 H            1    LIG   0.0000
@<TRIPOS>BOND
   1        1        2 1
   2        2        3 1
   3        2        4 1
   4        4        5 1
   5        5        6 2
   6        6        7 1
   7        7        8 1
   8        7        9 1
   9        6       10 1
  10       10       11 1
  11       11       12 1
  12       12       13 ar
  13       13       14 ar
  14       14       15 ar
  15       15       16 1
  16       16       17 1
  17       16       18 1
  18       16       19 1
  19       15       20 ar
  20       20       21 ar
  21       21       12 ar
  22       10       22 1
  23       22        4 2
  24        2       23 1
  25        5       24 1
  26        7       25 1
  27       11       26 1
  28       11       27 1
  29       13       28 1
  30       14       29 1
  31       20       30 1
  32       21       31 1

@<TRIPOS>MOLECULE

  31   32
SMALL
USER_CHARGES
@<TRIPOS>ATOM
   1 F1           1.7489    -2.5385     4.7487 F            1    LIG   0.0000
   2 C2           0.6295    -2.8638     4.1084 C.3          1    LIG   0.0000
   3 F3          -0.3464    -3.0565     4.9913 F            1    LIG   0.0000
   4 C4           0.2419    -1.7392     3.1622 C.2          1    LIG   0.0000
   5 C5          -1.0670    -1.3952     2.7678 C.2          1    LIG   0.0000
   6 C6          -0.9267    -0.3383     1.9225 C.2          1    LIG   0.0000
   7 C7          -2.0526     0.4030     1.2194 C.3          1    LIG   0.0000
   8 F8          -1.6131     0.8779     0.0575 F            1    LIG   0.0000
   9 F9          -3.0653    -0.4316     1.0027 F            1    LIG   0.0000
  10 N10          0.4030    -0.0674     1.8157 N.pl3        1    LIG   0.0000
  11 C11          1.0000     1.0000     1.0000 C.3          1    LIG   0.0000
  12 C12          1.8779     1.8779     1.8779 C.ar         1    LIG   0.0000
  13 C13          1.3257     2.9857     2.5110 C.ar         1    LIG   0.0000
  14 C14          2.1209     3.7956     3.3153 C.ar         1    LIG   0.0000
  15 C15          3.4663     3.4808     3.4747 C.ar         1    LIG   0.0000
  16 C16          4.3400     4.3608     4.3533 C.3          1    LIG   0.0000
  17 F17          4.0811     4.1062     5.6328 F            1    LIG   0.0000
  18 F18          5.6209     4.1065     4.1010 F            1    LIG   0.0000
  19 F19          4.0827     5.6398     4.0949 F            1    LIG   0.0000
  20 C20          4.0280     2.3744     2.8458 C.ar         1    LIG   0.0000
  21 C21          3.2247     1.5703     2.0441 C.ar         1    LIG   0.0000
  22 N22          1.0686    -0.9157     2.5637 N.2          1    LIG   0.0000
  23 H            0.7765    -3.7035     3.5856 H            1    LIG   0.0000
  24 H           -1.9194    -1.8355     3.0499 H            1    LIG   0.0000
  25 H           -2.3623     1.1608     1.7936 H            1    LIG   0.0000
  26 H            0.2739     1.5549     0.5939 H            1    LIG   0.0000
  27 H            1.5549     0.5939     0.2739 H            1    LIG   0.0000
  28 H            0.3567     3.2003     2.3882 H            1    LIG   0.0000
  29 H            1.7302     4.5941     3.7731 H            1    LIG   0.0000
  30 H            4.9970     2.1599     2.9685 H            1    LIG   0.0000
  31 H            3.6151     0.7710     1.5872 H            1    LIG   0.0000
@<TRIPOS>BOND
   1        1        2 1
   2        2        3 1
   3        2        4 1
   4        4        5 1
   5        5        6 2
   6        6        7 1
   7        7        8 1
   8        7        9 1
   9        6       10 1
  10       10       11 1
  11       11       12 1
  12       12       13 ar
  13       13       14 ar
  14       14       15 ar
  15       15       16 1
  16       16       17 1
  17       16       18 1
  18       16       19 1
  19       15       20 ar
  20       20       21 ar
  21       21       12 ar
  22       10       22 1
  23       22        4 2
  24        2       23 1
  25        5       24 1
  26        7       25 1
  27       11       26 1
  28       11       27 1
  29       13       28 1
  30       14       29 1
  31       20       30 1
  32       21       31 1

@<TRIPOS>MOLECULE

  31   32
SMALL
USER_CHARGES
@<TRIPOS>ATOM
   1 F1          -2.2922    -0.5394     4.9259 F            1    LIG   0.0000
   2 C2          -2.2195    -1.4111     3.9241 C.3          1    LIG   0.0000
   3 F3          -3.3103    -1.3115     3.1697 F            1    LIG   0.0000
   4 C4          -0.9910    -1.1120     3.0804 C.2          1    LIG   0.0000
   5 C5           0.0894    -1.9854     2.8419 C.2          1    LIG   0.0000
   6 C6           0.9458    -1.2951     2.0410 C.2          1    LIG   0.0000
   7 C7           2.2730    -1.8023     1.4999 C.3          1    LIG   0.0000
   8 F8           2.2442    -1.7879     0.1703 F            1    LIG   0.0000
   9 F9           3.2564    -1.0173     1.9306 F            1    LIG   0.0000
  10 N10          0.4030    -0.0674     1.8157 N.pl3        1    LIG   0.0000
  11 C11          1.0000     1.0000     1.0000 C.3          1    LIG   0.0000
  12 C12          1.8779     1.8779     1.8779 C.ar         1    LIG   0.0000
  13 C13          2.0001     1.5898     3.2325 C.ar         1    LIG   0.0000
  14 C14          2.8000     2.3877     4.0441 C.ar         1    LIG   0.0000
  15 C15          3.4705     3.4691     3.4823 C.ar         1    LIG   0.0000
  16 C16          4.3470     4.3437     4.3634 C.3          1    LIG   0.0000
  17 F17          4.0875     4.0861     5.6421 F            1    LIG   0.0000
  18 F18          5.6271     4.0862     4.1102 F            1    LIG   0.0000
  19 F19          4.0937     5.6243     4.1088 F            1    LIG   0.0000
  20 C20          3.3549     3.7652     2.1280 C.ar         1    LIG   0.0000
  21 C21          2.5533     2.9613     1.3245 C.ar         1    LIG   0.0000
  22 N22         -0.7458     0.0090     2.4455 N.2          1    LIG   0.0000
  23 H           -2.1528    -2.3381     4.2930 H            1    LIG   0.0000
  24 H            0.2026    -2.9166     3.1885 H            1    LIG   0.0000
  25 H            2.4281    -2.7369     1.8199 H            1    LIG   0.0000
  26 H            0.2739     1.5549     0.5939 H            1    LIG   0.0000
  27 H            1.5549     0.5939     0.2739 H            1    LIG   0.0000
  28 H            1.5129     0.8089     3.6235 H            1    LIG   0.0000
  29 H            2.8918     2.1863     5.0193 H            1    LIG   0.0000
  30 H            3.8420     4.5463     1.7372 H            1    LIG   0.0000
  31 H            2.4624     3.1619     0.3491 H            1    LIG   0.0000
@<TRIPOS>BOND
   1        1        2 1
   2        2        3 1
   3        2        4 1
   4        4        5 1
   5        5        6 2
   6        6        7 1
   7        7        8 1
   8        7        9 1
   9        6       10 1
  10       10       11 1
  11       11       12 1
  12       12       13 ar
  13       13       14 ar
  14       14       15 ar
  15       15       16 1
  16       16       17 1
  17       16       18 1
  18       16       19 1
  19       15       20 ar
  20       20       21 ar
  21       21       12 ar
  22       10       22 1
  23       22        4 2
  24        2       23 1
  25        5       24 1
  26        7       25 1
  27       11       26 1
  28       11       27 1
  29       13       28 1
  30       14       29 1
  31       20       30 1
  32       21       31 1

@<TRIPOS>MOLECULE

  31   32
SMALL
USER_CHARGES
@<TRIPOS>ATOM
   1 F1          -3.2587    -0.7290     3.4513 F            1    LIG   0.0000
   2 C2          -2.2195    -1.4111     3.9241 C.3          1    LIG   0.0000
   3 F3          -2.4846    -2.7135     3.8750 F            1    LIG   0.0000
   4 C4          -0.9910    -1.1120     3.0804 C.2          1    LIG   0.0000
   5 C5           0.0894    -1.9854     2.8419 C.2          1    LIG   0.0000
   6 C6           0.9458    -1.2951     2.0410 C.2          1    LIG   0.0000
   7 C7           2.2730    -1.8023     1.4999 C.3          1    LIG   0.0000
   8 F8           3.0757    -2.1125     2.5140 F            1    LIG   0.0000
   9 F9           2.0635    -2.8831     0.7537 F            1    LIG   0.0000
  10 N10          0.4030    -0.0674     1.8157 N.pl3        1    LIG   0.0000
  11 C11          1.0000     1.0000     1.0000 C.3          1    LIG   0.0000
  12 C12          1.8779     1.8779     1.8779 C.ar         1    LIG   0.0000
  13 C13          2.0001     1.5898     3.2325 C.ar         1    LIG   0.0000
  14 C14          2.8000     2.3877     4.0441 C.ar         1    LIG   0.0000
  15 C15          3.4705     3.4691     3.4823 C.ar         1    LIG   0.0000
  16 C16          4.3470     4.3437     4.3634 C.3          1    LIG   0.0000
  17 F17          4.0875     4.0861     5.6421 F            1    LIG   0.0000
  18 F18          5.6271     4.0862     4.1102 F            1    LIG   0.0000
  19 F19          4.0937     5.6243     4.1088 F            1    LIG   0.0000
  20 C20          3.3549     3.7652     2.1280 C.ar         1    LIG   0.0000
  21 C21          2.5533     2.9613     1.3245 C.ar         1    LIG   0.0000
  22 N22         -0.7458     0.0090     2.4455 N.2          1    LIG   0.0000
  23 H           -2.0470    -1.1415     4.8715 H            1    LIG   0.0000
  24 H            0.2026    -2.9166     3.1885 H            1    LIG   0.0000
  25 H            2.6998    -1.0901     0.9427 H            1    LIG   0.0000
  26 H            0.2739     1.5549     0.5939 H            1    LIG   0.0000
  27 H            1.5549     0.5939     0.2739 H            1    LIG   0.0000
  28 H            1.5129     0.8089     3.6235 H            1    LIG   0.0000
  29 H            2.8918     2.1863     5.0193 H            1    LIG   0.0000
  30 H            3.8420     4.5463     1.7372 H            1    LIG   0.0000
  31 H            2.4624     3.1619     0.3491 H            1    LIG   0.0000
@<TRIPOS>BOND
   1        1        2 1
   2        2        3 1
   3        2        4 1
   4        4        5 1
   5        5        6 2
   6        6        7 1
   7        7        8 1
   8        7        9 1
   9        6       10 1
  10       10       11 1
  11       11       12 1
  12       12       13 ar
  13       13       14 ar
  14       14       15 ar
  15       15       16 1
  16       16       17 1
  17       16       18 1
  18       16       19 1
  19       15       20 ar
  20       20       21 ar
  21       21       12 ar
  22       10       22 1
  23       22        4 2
  24        2       23 1
  25        5       24 1
  26        7       25 1
  27       11       26 1
  28       11       27 1
  29       13       28 1
  30       14       29 1
  31       20       30 1
  32       21       31 1

@<TRIPOS>MOLECULE

  31   32
SMALL
USER_CHARGES
@<TRIPOS>ATOM
   1 F1          -2.4679    -3.2107     2.7179 F            1    LIG   0.0000
   2 C2          -2.4314    -1.9331     3.0858 C.3          1    LIG   0.0000
   3 F3          -2.6111    -1.8451     4.4007 F            1    LIG   0.0000
   4 C4          -1.0820    -1.3381     2.7179 C.2          1    LIG   0.0000
   5 C5           0.1757    -1.7736     3.1822 C.2          1    LIG   0.0000
   6 C6           1.0860    -0.9523     2.5922 C.2          1    LIG   0.0000
   7 C7           2.5946    -1.0096     2.7726 C.3          1    LIG   0.0000
   8 F8           2.8946    -0.8327     4.0561 F            1    LIG   0.0000
   9 F9           3.0443    -2.1953     2.3715 F            1    LIG   0.0000
  10 N10          0.4030    -0.0674     1.8157 N.pl3        1    LIG   0.0000
  11 C11          1.0000     1.0000     1.0000 C.3          1    LIG   0.0000
  12 C12          1.8779     1.8779     1.8779 C.ar         1    LIG   0.0000
  13 C13          2.0001     1.5898     3.2325 C.ar         1    LIG   0.0000
  14 C14          2.8000     2.3877     4.0441 C.ar         1    LIG   0.0000
  15 C15          3.4705     3.4691     3.4823 C.ar         1    LIG   0.0000
  16 C16          4.3470     4.3437     4.3634 C.3          1    LIG   0.0000
  17 F17          4.0875     4.0861     5.6421 F            1    LIG   0.0000
  18 F18          5.6271     4.0862     4.1102 F            1    LIG   0.0000
  19 F19          4.0937     5.6243     4.1088 F            1    LIG   0.0000
  20 C20          3.3549     3.7652     2.1280 C.ar         1    LIG   0.0000
  21 C21          2.5533     2.9613     1.3245 C.ar         1    LIG   0.0000
  22 N22         -0.8805    -0.3236     1.9117 N.2          1    LIG   0.0000
  23 H           -3.1568    -1.4301     2.6159 H            1    LIG   0.0000
  24 H            0.3601    -2.5276     3.8127 H            1    LIG   0.0000
  25 H            3.0230    -0.2889     2.2276 H            1    LIG   0.0000
  26 H            0.2739     1.5549     0.5939 H            1    LIG   0.0000
  27 H            1.5549     0.5939     0.2739 H            1    LIG   0.0000
  28 H            1.5129     0.8089     3.6235 H            1    LIG   0.0000
  29 H            2.8918     2.1863     5.0193 H            1    LIG   0.0000
  30 H            3.8420     4.5463     1.7372 H            1    LIG   0.0000
  31 H            2.4624     3.1619     0.3491 H            1    LIG   0.0000
@<TRIPOS>BOND
   1        1        2 1
   2        2        3 1
   3        2        4 1
   4        4        5 1
   5        5        6 2
   6        6        7 1
   7        7        8 1
   8        7        9 1
   9        6       10 1
  10       10       11 1
  11       11       12 1
  12       12       13 ar
  13       13       14 ar
  14       14       15 ar
  15       15       16 1
  16       16       17 1
  17       16       18 1
  18       16       19 1
  19       15       20 ar
  20       20       21 ar
  21       21       12 ar
  22       10       22 1
  23       22        4 2
  24        2       23 1
  25        5       24 1
  26        7       25 1
  27       11       26 1
  28       11       27 1
  29       13       28 1
  30       14       29 1
  31       20       30 1
  32       21       31 1

@<TRIPOS>MOLECULE

  31   32
SMALL
USER_CHARGES
@<TRIPOS>ATOM
   1 F1          -2.3371    -0.2025     4.8148 F            1    LIG   0.0000
   2 C2          -1.5306    -1.2462     4.6440 C.3          1    LIG   0.0000
   3 F3          -2.2581    -2.3520     4.5138 F            1    LIG   0.0000
   4 C4          -0.6934    -1.0401     3.3922 C.2          1    LIG   0.0000
   5 C5          -0.1904    -2.0522     2.5498 C.2          1    LIG   0.0000
   6 C6           0.4922    -1.4028     1.5681 C.2          1    LIG   0.0000
   7 C7           1.2272    -2.0528     0.4067 C.3          1    LIG   0.0000
   8 F8           0.6244    -3.1933     0.0831 F            1    LIG   0.0000
   9 F9           1.2154    -1.2326    -0.6402 F            1    LIG   0.0000
  10 N10          0.4030    -0.0674     1.8157 N.pl3        1    LIG   0.0000
  11 C11          1.0000     1.0000     1.0000 C.3          1    LIG   0.0000
  12 C12          1.8779     1.8779     1.8779 C.ar         1    LIG   0.0000
  13 C13          2.0001     1.5898     3.2325 C.ar         1    LIG   0.0000
  14 C14          2.8000     2.3877     4.0441 C.ar         1    LIG   0.0000
  15 C15          3.4705     3.4691     3.4823 C.ar         1    LIG   0.0000
  16 C16          4.3470     4.3437     4.3634 C.3          1    LIG   0.0000
  17 F17          4.0875     4.0861     5.6421 F            1    LIG   0.0000
  18 F18          5.6271     4.0862     4.1102 F            1    LIG   0.0000
  19 F19          4.0937     5.6243     4.1088 F            1    LIG   0.0000
  20 C20          3.3549     3.7652     2.1280 C.ar         1    LIG   0.0000
  21 C21          2.5533     2.9613     1.3245 C.ar         1    LIG   0.0000
  22 N22         -0.3073     0.1142     2.9041 N.2          1    LIG   0.0000
  23 H           -0.9280    -1.3351     5.4371 H            1    LIG   0.0000
  24 H           -0.3101    -3.0397     2.6521 H            1    LIG   0.0000
  25 H            2.1728    -2.2395     0.6732 H            1    LIG   0.0000
  26 H            0.2739     1.5549     0.5939 H            1    LIG   0.0000
  27 H            1.5549     0.5939     0.2739 H            1    LIG   0.0000
  28 H            1.5129     0.8089     3.6235 H            1    LIG   0.0000
  29 H            2.8918     2.1863     5.0193 H            1    LIG   0.0000
  30 H            3.8420     4.5463     1.7372 H            1    LIG   0.0000
  31 H            2.4624     3.1619     0.3491 H            1    LIG   0.0000
@<TRIPOS>BOND
   1        1        2 1
   2        2        3 1
   3        2        4 1
   4        4        5 1
   5        5        6 2
   6        6        7 1
   7        7        8 1
   8        7        9 1
   9        6       10 1
  10       10       11 1
  11       11       12 1
  12       12       13 ar
  13       13       14 ar
  14       14       15 ar
  15       15       16 1
  16       16       17 1
  17       16       18 1
  18       16       19 1
  19       15       20 ar
  20       20       21 ar
  21       21       12 ar
  22       10       22 1
  23       22        4 2
  24        2       23 1
  25        5       24 1
  26        7       25 1
  27       11       26 1
  28       11       27 1
  29       13       28 1
  30       14       29 1
  31       20       30 1
  32       21       31 1

@<TRIPOS>MOLECULE

  31   32
SMALL
USER_CHARGES
@<TRIPOS>ATOM
   1 F1           0.5288    -4.1886     2.2156 F            1    LIG   0.0000
   2 C2           0.4175    -3.3859     3.2701 C.3          1    LIG   0.0000
   3 F3           1.5472    -3.4159     3.9714 F            1    LIG   0.0000
   4 C4           0.1509    -1.9653     2.7996 C.2          1    LIG   0.0000
   5 C5          -0.9807    -1.1834     3.1081 C.2          1    LIG   0.0000
   6 C6          -0.7864     0.0045     2.4737 C.2          1    LIG   0.0000
   7 C7          -1.7310     1.1956     2.4921 C.3          1    LIG   0.0000
   8 F8          -1.1041     2.2508     3.0044 F            1    LIG   0.0000
   9 F9          -2.1212     1.4713     1.2509 F            1    LIG   0.0000
  10 N10          0.4030    -0.0674     1.8157 N.pl3        1    LIG   0.0000
  11 C11          1.0000     1.0000     1.0000 C.3          1    LIG   0.0000
  12 C12          1.8779     1.8779     1.8779 C.ar         1    LIG   0.0000
  13 C13          2.0001     1.5898     3.2325 C.ar         1    LIG   0.0000
  14 C14          2.8000     2.3877     4.0441 C.ar         1    LIG   0.0000
  15 C15          3.4705     3.4691     3.4823 C.ar         1    LIG   0.0000
  16 C16          4.3470     4.3437     4.3634 C.3          1    LIG   0.0000
  17 F17          4.0875     4.0861     5.6421 F            1    LIG   0.0000
  18 F18          5.6271     4.0862     4.1102 F            1    LIG   0.0000
  19 F19          4.0937     5.6243     4.1088 F            1    LIG   0.0000
  20 C20          3.3549     3.7652     2.1280 C.ar         1    LIG   0.0000
  21 C21          2.5533     2.9613     1.3245 C.ar         1    LIG   0.0000
  22 N22          0.9339    -1.2482     2.0299 N.2          1    LIG   0.0000
  23 H           -0.3402    -3.6942     3.8453 H            1    LIG   0.0000
  24 H           -1.7619    -1.4465     3.6742 H            1    LIG   0.0000
  25 H           -2.5304     0.9785     3.0523 H            1    LIG   0.0000
  26 H            0.2739     1.5549     0.5939 H            1    LIG   0.0000
  27 H            1.5549     0.5939     0.2739 H            1    LIG   0.0000
  28 H            1.5129     0.8089     3.6235 H            1    LIG   0.0000
  29 H            2.8918     2.1863     5.0193 H            1    LIG   0.0000
  30 H            3.8420     4.5463     1.7372 H            1    LIG   0.0000
  31 H            2.4624     3.1619     0.3491 H            1    LIG   0.0000
@<TRIPOS>BOND
   1        1        2 1
   2        2        3 1
   3        2        4 1
   4        4        5 1
   5        5        6 2
   6        6        7 1
   7        7        8 1
   8        7        9 1
   9        6       10 1
  10       10       11 1
  11       11       12 1
  12       12       13 ar
  13       13       14 ar
  14       14       15 ar
  15       15       16 1
  16       16       17 1
  17       16       18 1
  18       16       19 1
  19       15       20 ar
  20       20       21 ar
  21       21       12 ar
  22       10       22 1
  23       22        4 2
  24        2       23 1
  25        5       24 1
  26        7       25 1
  27       11       26 1
  28       11       27 1
  29       13       28 1
  30       14       29 1
  31       20       30 1
  32       21       31 1

@<TRIPOS>MOLECULE

  31   32
SMALL
USER_CHARGES
@<TRIPOS>ATOM
   1 F1           1.7293    -3.5808     3.3706 F            1    LIG   0.0000
   2 C2           0.4175    -3.3859     3.2701 C.3          1    LIG   0.0000
   3 F3          -0.1508    -3.5735     4.4578 F            1    LIG   0.0000
   4 C4           0.1509    -1.9653     2.7996 C.2          1    LIG   0.0000
   5 C5          -0.9807    -1.1834     3.1081 C.2          1    LIG   0.0000
   6 C6          -0.7864     0.0045     2.4737 C.2          1    LIG   0.0000
   7 C7          -1.7310     1.1956     2.4921 C.3          1    LIG   0.0000
   8 F8          -2.9089     0.8351     1.9906 F            1    LIG   0.0000
   9 F9          -1.8918     1.6146     3.7441 F            1    LIG   0.0000
  10 N10          0.4030    -0.0674     1.8157 N.pl3        1    LIG   0.0000
  11 C11          1.0000     1.0000     1.0000 C.3          1    LIG   0.0000
  12 C12          1.8779     1.8779     1.8779 C.ar         1    LIG   0.0000
  13 C13          2.0001     1.5898     3.2325 C.ar         1    LIG   0.0000
  14 C14          2.8000     2.3877     4.0441 C.ar         1    LIG   0.0000
  15 C15          3.4705     3.4691     3.4823 C.ar         1    LIG   0.0000
  16 C16          4.3470     4.3437     4.3634 C.3          1    LIG   0.0000
  17 F17          4.0875     4.0861     5.6421 F            1    LIG   0.0000
  18 F18          5.6271     4.0862     4.1102 F            1    LIG   0.0000
  19 F19          4.0937     5.6243     4.1088 F            1    LIG   0.0000
  20 C20          3.3549     3.7652     2.1280 C.ar         1    LIG   0.0000
  21 C21          2.5533     2.9613     1.3245 C.ar         1    LIG   0.0000
  22 N22          0.9339    -1.2482     2.0299 N.2          1    LIG   0.0000
  23 H            0.0339    -4.0328     2.6111 H            1    LIG   0.0000
  24 H           -1.7619    -1.4465     3.6742 H            1    LIG   0.0000
  25 H           -1.3459     1.9351     1.9400 H            1    LIG   0.0000
  26 H            0.2739     1.5549     0.5939 H            1    LIG   0.0000
  27 H            1.5549     0.5939     0.2739 H            1    LIG   0.0000
  28 H            1.5129     0.8089     3.6235 H            1    LIG   0.0000
  29 H            2.8918     2.1863     5.0193 H            1    LIG   0.0000
  30 H            3.8420     4.5463     1.7372 H            1    LIG   0.0000
  31 H            2.4624     3.1619     0.3491 H            1    LIG   0.0000
@<TRIPOS>BOND
   1        1        2 1
   2        2        3 1
   3        2        4 1
   4        4        5 1
   5        5        6 2
   6        6        7 1
   7        7        8 1
   8        7        9 1
   9        6       10 1
  10       10       11 1
  11       11       12 1
  12       12       13 ar
  13       13       14 ar
  14       14       15 ar
  15       15       16 1
  16       16       17 1
  17       16       18 1
  18       16       19 1
  19       15       20 ar
  20       20       21 ar
  21       21       12 ar
  22       10       22 1
  23       22        4 2
  24        2       23 1
  25        5       24 1
  26        7       25 1
  27       11       26 1
  28       11       27 1
  29       13       28 1
  30       14       29 1
  31       20       30 1
  32       21       31 1

@<TRIPOS>MOLECULE

  31   32
SMALL
USER_CHARGES
@<TRIPOS>ATOM
   1 F1           1.4188    -3.7254     3.4731 F            1    LIG   0.0000
   2 C2           0.6295    -2.8638     4.1084 C.3          1    LIG   0.0000
   3 F3           1.2759    -2.3593     5.1555 F            1    LIG   0.0000
   4 C4           0.2419    -1.7392     3.1622 C.2          1    LIG   0.0000
   5 C5          -1.0670    -1.3952     2.7678 C.2          1    LIG   0.0000
   6 C6          -0.9267    -0.3383     1.9225 C.2          1    LIG   0.0000
   7 C7          -2.0526     0.4030     1.2194 C.3          1    LIG   0.0000
   8 F8          -1.6131     0.8779     0.0575 F            1    LIG   0.0000
   9 F9          -3.0653    -0.4316     1.0027 F            1    LIG   0.0000
  10 N10          0.4030    -0.0674     1.8157 N.pl3        1    LIG   0.0000
  11 C11          1.0000     1.0000     1.0000 C.3          1    LIG   0.0000
  12 C12          1.8779     1.8779     1.8779 C.ar         1    LIG   0.0000
  13 C13          2.0001     1.5898     3.2325 C.ar         1    LIG   0.0000
  14 C14          2.8000     2.3877     4.0441 C.ar         1    LIG   0.0000
  15 C15          3.4705     3.4691     3.4823 C.ar         1    LIG   0.0000
  16 C16          4.3470     4.3437     4.3634 C.3          1    LIG   0.0000
  17 F17          4.0875     4.0861     5.6421 F            1    LIG   0.0000
  18 F18          5.6271     4.0862     4.1102 F            1    LIG   0.0000
  19 F19          4.0937     5.6243     4.1088 F            1    LIG   0.0000
  20 C20          3.3549     3.7652     2.1280 C.ar         1    LIG   0.0000
  21 C21          2.5533     2.9613     1.3245 C.ar         1    LIG   0.0000
  22 N22          1.0686    -0.9157     2.5637 N.2          1    LIG   0.0000
  23 H           -0.1951    -3.3353     4.4212 H            1    LIG   0.0000
  24 H           -1.9194    -1.8355     3.0499 H            1    LIG   0.0000
  25 H           -2.3623     1.1608     1.7936 H            1    LIG   0.0000
  26 H            0.2739     1.5549     0.5939 H            1    LIG   0.0000
  27 H            1.5549     0.5939     0.2739 H            1    LIG   0.0000
  28 H            1.5129     0.8089     3.6235 H            1    LIG   0.0000
  29 H            2.8918     2.1863     5.0193 H            1    LIG   0.0000
  30 H            3.8420     4.5463     1.7372 H            1    LIG   0.0000
  31 H            2.4624     3.1619     0.3491 H            1    LIG   0.0000
@<TRIPOS>BOND
   1        1        2 1
   2        2        3 1
   3        2        4 1
   4        4        5 1
   5        5        6 2
   6        6        7 1
   7        7        8 1
   8        7        9 1
   9        6       10 1
  10       10       11 1
  11       11       12 1
  12       12       13 ar
  13       13       14 ar
  14       14       15 ar
  15       15       16 1
  16       16       17 1
  17       16       18 1
  18       16       19 1
  19       15       20 ar
  20       20       21 ar
  21       21       12 ar
  22       10       22 1
  23       22        4 2
  24        2       23 1
  25        5       24 1
  26        7       25 1
  27       11       26 1
  28       11       27 1
  29       13       28 1
  30       14       29 1
  31       20       30 1
  32       21       31 1

@<TRIPOS>MOLECULE

  31   32
SMALL
USER_CHARGES
@<TRIPOS>ATOM
   1 F1          -0.2638    -3.8452     4.0200 F            1    LIG   0.0000
   2 C2           0.6295    -2.8638     4.1084 C.3          1    LIG   0.0000
   3 F3           1.8314    -3.3273     3.7774 F            1    LIG   0.0000
   4 C4           0.2419    -1.7392     3.1622 C.2          1    LIG   0.0000
   5 C5          -1.0670    -1.3952     2.7678 C.2          1    LIG   0.0000
   6 C6          -0.9267    -0.3383     1.9225 C.2          1    LIG   0.0000
   7 C7          -2.0526     0.4030     1.2194 C.3          1    LIG   0.0000
   8 F8          -3.1489     0.3603     1.9714 F            1    LIG   0.0000
   9 F9          -1.6966     1.6698     1.0262 F            1    LIG   0.0000
  10 N10          0.4030    -0.0674     1.8157 N.pl3        1    LIG   0.0000
  11 C11          1.0000     1.0000     1.0000 C.3          1    LIG   0.0000
  12 C12          1.8779     1.8779     1.8779 C.ar         1    LIG   0.0000
  13 C13          2.0001     1.5898     3.2325 C.ar         1    LIG   0.0000
  14 C14          2.8000     2.3877     4.0441 C.ar         1    LIG   0.0000
  15 C15          3.4705     3.4691     3.4823 C.ar         1    LIG   0.0000
  16 C16          4.3470     4.3437     4.3634 C.3          1    LIG   0.0000
  17 F17          4.0875     4.0861     5.6421 F            1    LIG   0.0000
  18 F18          5.6271     4.0862     4.1102 F            1    LIG   0.0000
  19 F19          4.0937     5.6243     4.1088 F            1    LIG   0.0000
  20 C20          3.3549     3.7652     2.1280 C.ar         1    LIG   0.0000
  21 C21          2.5533     2.9613     1.3245 C.ar         1    LIG   0.0000
  22 N22          1.0686    -0.9157     2.5637 N.2          1    LIG   0.0000
  23 H            0.6524    -2.5174     5.0462 H            1    LIG   0.0000
  24 H           -1.9194    -1.8355     3.0499 H            1    LIG   0.0000
  25 H           -2.2367    -0.0299     0.3370 H            1    LIG   0.0000
  26 H            0.2739     1.5549     0.5939 H            1    LIG   0.0000
  27 H            1.5549     0.5939     0.2739 H            1    LIG   0.0000
  28 H            1.5129     0.8089     3.6235 H            1    LIG   0.0000
  29 H            2.8918     2.1863     5.0193 H            1    LIG   0.0000
  30 H            3.8420     4.5463     1.7372 H            1    LIG   0.0000
  31 H            2.4624     3.1619     0.3491 H            1    LIG   0.0000
@<TRIPOS>BOND
   1        1        2 1
   2        2        3 1
   3        2        4 1
   4        4        5 1
   5        5        6 2
   6        6        7 1
   7        7        8 1
   8        7        9 1
   9        6       10 1
  10       10       11 1
  11       11       12 1
  12       12       13 ar
  13       13       14 ar
  14       14       15 ar
  15       15       16 1
  16       16       17 1
  17       16       18 1
  18       16       19 1
  19       15       20 ar
  20       20       21 ar
  21       21       12 ar
  22       10       22 1
  23       22        4 2
  24        2       23 1
  25        5       24 1
  26        7       25 1
  27       11       26 1
  28       11       27 1
  29       13       28 1
  30       14       29 1
  31       20       30 1
  32       21       31 1

@<TRIPOS>MOLECULE

  31   32
SMALL
USER_CHARGES
@<TRIPOS>ATOM
   1 F1          -0.8713    -3.9919     1.4482 F            1    LIG   0.0000
   2 C2          -0.2714    -3.5507     2.5501 C.3          1    LIG   0.0000
   3 F3           0.9400    -4.0920     2.6423 F            1    LIG   0.0000
   4 C4          -0.1466    -2.0371     2.4878 C.2          1    LIG   0.0000
   5 C5          -0.7009    -1.1167     3.4003 C.2          1    LIG   0.0000
   6 C6          -0.3329     0.1122     2.9466 C.2          1    LIG   0.0000
   7 C7          -0.6853     1.4461     3.5853 C.3          1    LIG   0.0000
   8 F8          -2.0077     1.5819     3.6274 F            1    LIG   0.0000
   9 F9          -0.1957     1.4890     4.8212 F            1    LIG   0.0000
  10 N10          0.4030    -0.0674     1.8157 N.pl3        1    LIG   0.0000
  11 C11          1.0000     1.0000     1.0000 C.3          1    LIG   0.0000
  12 C12          1.8779     1.8779     1.8779 C.ar         1    LIG   0.0000
  13 C13          2.0001     1.5898     3.2325 C.ar         1    LIG   0.0000
  14 C14          2.8000     2.3877     4.0441 C.ar         1    LIG   0.0000
  15 C15          3.4705     3.4691     3.4823 C.ar         1    LIG   0.0000
  16 C16          4.3470     4.3437     4.3634 C.3          1    LIG   0.0000
  17 F17          4.0875     4.0861     5.6421 F            1    LIG   0.0000
  18 F18          5.6271     4.0862     4.1102 F            1    LIG   0.0000
  19 F19          4.0937     5.6243     4.1088 F            1    LIG   0.0000
  20 C20          3.3549     3.7652     2.1280 C.ar         1    LIG   0.0000
  21 C21          2.5533     2.9613     1.3245 C.ar         1    LIG   0.0000
  22 N22          0.4954    -1.3534     1.5713 N.2          1    LIG   0.0000
  23 H           -0.8131    -3.8079     3.3504 H            1    LIG   0.0000
  24 H           -1.2492    -1.3234     4.2106 H            1    LIG   0.0000
  25 H           -0.2910     2.1892     3.0446 H            1    LIG   0.0000
  26 H            0.2739     1.5549     0.5939 H            1    LIG   0.0000
  27 H            1.5549     0.5939     0.2739 H            1    LIG   0.0000
  28 H            1.5129     0.8089     3.6235 H            1    LIG   0.0000
  29 H            2.8918     2.1863     5.0193 H            1    LIG   0.0000
  30 H            3.8420     4.5463     1.7372 H            1    LIG   0.0000
  31 H            2.4624     3.1619     0.3491 H            1    LIG   0.0000
@<TRIPOS>BOND
   1        1        2 1
   2        2        3 1
   3        2        4 1
   4        4        5 1
   5        5        6 2
   6        6        7 1
   7        7        8 1
   8        7        9 1
   9        6       10 1
  10       10       11 1
  11       11       12 1
  12       12       13 ar
  13       13       14 ar
  14       14       15 ar
  15       15       16 1
  16       16       17 1
  17       16       18 1
  18       16       19 1
  19       15       20 ar
  20       20       21 ar
  21       21       12 ar
  22       10       22 1
  23       22        4 2
  24        2       23 1
  25        5       24 1
  26        7       25 1
  27       11       26 1
  28       11       27 1
  29       13       28 1
  30       14       29 1
  31       20       30 1
  32       21       31 1

@<TRIPOS>MOLECULE

  31   32
SMALL
USER_CHARGES
@<TRIPOS>ATOM
   1 F1           0.2559    -3.9925     3.6884 F            1    LIG   0.0000
   2 C2          -0.2714    -3.5507     2.5501 C.3          1    LIG   0.0000
   3 F3          -1.5555    -3.8924     2.4943 F            1    LIG   0.0000
   4 C4          -0.1466    -2.0371     2.4878 C.2          1    LIG   0.0000
   5 C5          -0.7009    -1.1167     3.4003 C.2          1    LIG   0.0000
   6 C6          -0.3329     0.1122     2.9466 C.2          1    LIG   0.0000
   7 C7          -0.6853     1.4461     3.5853 C.3          1    LIG   0.0000
   8 F8          -0.7680     2.3809     2.6428 F            1    LIG   0.0000
   9 F9          -1.8544     1.3429     4.2111 F            1    LIG   0.0000
  10 N10          0.4030    -0.0674     1.8157 N.pl3        1    LIG   0.0000
  11 C11          1.0000     1.0000     1.0000 C.3          1    LIG   0.0000
  12 C12          1.8779     1.8779     1.8779 C.ar         1    LIG   0.0000
  13 C13          2.0001     1.5898     3.2325 C.ar         1    LIG   0.0000
  14 C14          2.8000     2.3877     4.0441 C.ar         1    LIG   0.0000
  15 C15          3.4705     3.4691     3.4823 C.ar         1    LIG   0.0000
  16 C16          4.3470     4.3437     4.3634 C.3          1    LIG   0.0000
  17 F17          4.0875     4.0861     5.6421 F            1    LIG   0.0000
  18 F18          5.6271     4.0862     4.1102 F            1    LIG   0.0000
  19 F19          4.0937     5.6243     4.1088 F            1    LIG   0.0000
  20 C20          3.3549     3.7652     2.1280 C.ar         1    LIG   0.0000
  21 C21          2.5533     2.9613     1.3245 C.ar         1    LIG   0.0000
  22 N22          0.4954    -1.3534     1.5713 N.2          1    LIG   0.0000
  23 H            0.2157    -3.9574     1.7772 H            1    LIG   0.0000
  24 H           -1.2492    -1.3234     4.2106 H            1    LIG   0.0000
  25 H            0.0240     1.6983     4.2436 H            1    LIG   0.0000
  26 H            0.2739     1.5549     0.5939 H            1    LIG   0.0000
  27 H            1.5549     0.5939     0.2739 H            1    LIG   0.0000
  28 H            1.5129     0.8089     3.6235 H            1    LIG   0.0000
  29 H            2.8918     2.1863     5.0193 H            1    LIG   0.0000
  30 H            3.8420     4.5463     1.7372 H            1    LIG   0.0000
  31 H            2.4624     3.1619     0.3491 H            1    LIG   0.0000
@<TRIPOS>BOND
   1        1        2 1
   2        2        3 1
   3        2        4 1
   4        4        5 1
   5        5        6 2
   6        6        7 1
   7        7        8 1
   8        7        9 1
   9        6       10 1
  10       10       11 1
  11       11       12 1
  12       12       13 ar
  13       13       14 ar
  14       14       15 ar
  15       15       16 1
  16       16       17 1
  17       16       18 1
  18       16       19 1
  19       15       20 ar
  20       20       21 ar
  21       21       12 ar
  22       10       22 1
  23       22        4 2
  24        2       23 1
  25        5       24 1
  26        7       25 1
  27       11       26 1
  28       11       27 1
  29       13       28 1
  30       14       29 1
  31       20       30 1
  32       21       31 1

