@<TRIPOS>MOLECULE
*****
 31 32 0 0 0
SMALL
USER_CHARGES

@<TRIPOS>ATOM
      1 F1         -2.3371   -0.2025    4.8148 F       1  LIG1        0.0000
      2 C2         -1.5306   -1.2462    4.6440 C.3     1  LIG1        0.0000
      3 F3         -2.2581   -2.3520    4.5138 F       1  LIG1        0.0000
      4 C4         -0.6934   -1.0401    3.3922 C.2     1  LIG1        0.0000
      5 C5         -0.1904   -2.0522    2.5498 C.2     1  LIG1        0.0000
      6 C6          0.4922   -1.4028    1.5681 C.2     1  LIG1        0.0000
      7 C7          1.2272   -2.0528    0.4067 C.3     1  LIG1        0.0000
      8 F8          2.2587   -1.2913    0.0529 F       1  LIG1        0.0000
      9 F9          1.6677   -3.2521    0.7763 F       1  LIG1        0.0000
     10 N10         0.4030   -0.0674    1.8157 N.pl3   1  LIG1        0.0000
     11 C11         1.0000    1.0000    1.0000 C.3     1  LIG1        0.0000
     12 C12         1.8779    1.8779    1.8779 C.ar    1  LIG1        0.0000
     13 C13         1.3257    2.9857    2.5110 C.ar    1  LIG1        0.0000
     14 C14         2.1209    3.7956    3.3153 C.ar    1  LIG1        0.0000
     15 C15         3.4663    3.4808    3.4747 C.ar    1  LIG1        0.0000
     16 C16         4.3400    4.3608    4.3533 C.3     1  LIG1        0.0000
     17 F17         4.0811    4.1062    5.6328 F       1  LIG1        0.0000
     18 F18         5.6209    4.1065    4.1010 F       1  LIG1        0.0000
     19 F19         4.0827    5.6398    4.0949 F       1  LIG1        0.0000
     20 C20         4.0280    2.3744    2.8458 C.ar    1  LIG1        0.0000
     21 C21         3.2247    1.5703    2.0441 C.ar    1  LIG1        0.0000
     22 N22        -0.3073    0.1142    2.9041 N.2     1  LIG1        0.0000
     23 H          -0.9280   -1.3351    5.4371 H       1  LIG1        0.0000
     24 H          -0.3101   -3.0397    2.6521 H       1  LIG1        0.0000
     25 H           0.6040   -2.1511   -0.3691 H       1  LIG1        0.0000
     26 H           0.2739    1.5549    0.5939 H       1  LIG1        0.0000
     27 H           1.5549    0.5939    0.2739 H       1  LIG1        0.0000
     28 H           0.3567    3.2003    2.3882 H       1  LIG1        0.0000
     29 H           1.7302    4.5941    3.7731 H       1  LIG1        0.0000
     30 H           4.9970    2.1599    2.9685 H       1  LIG1        0.0000
     31 H           3.6151    0.7710    1.5872 H       1  LIG1        0.0000
@<TRIPOS>BOND
     1     1     2    1
     2     2     3    1
     3     2     4    1
     4     4     5    1
     5     5     6    2
     6     6     7    1
     7     7     8    1
     8     7     9    1
     9     6    10    1
    10    10    11    1
    11    11    12    1
    12    12    13   ar
    13    13    14   ar
    14    14    15   ar
    15    15    16    1
    16    16    17    1
    17    16    18    1
    18    16    19    1
    19    15    20   ar
    20    20    21   ar
    21    21    12   ar
    22    10    22    1
    23    22     4    2
    24     2    23    1
    25     5    24    1
    26     7    25    1
    27    11    26    1
    28    11    27    1
    29    13    28    1
    30    14    29    1
    31    20    30    1
    32    21    31    1
