@<TRIPOS>MOLECULE
*****
 31 32 0 0 0
SMALL
USER_CHARGES

@<TRIPOS>ATOM
      1 F1          1.7293   -3.5808    3.3706 F       1  LIG1        0.0000
      2 C2          0.4175   -3.3859    3.2701 C.3     1  LIG1        0.0000
      3 F3         -0.1508   -3.5735    4.4578 F       1  LIG1        0.0000
      4 C4          0.1509   -1.9653    2.7996 C.2     1  LIG1        0.0000
      5 C5         -0.9807   -1.1834    3.1081 C.2     1  LIG1        0.0000
      6 C6         -0.7864    0.0045    2.4737 C.2     1  LIG1        0.0000
      7 C7         -1.7310    1.1956    2.4921 C.3     1  LIG1        0.0000
      8 F8         -2.9089    0.8351    1.9906 F       1  LIG1        0.0000
      9 F9         -1.8918    1.6146    3.7441 F       1  LIG1        0.0000
     10 N10         0.4030   -0.0674    1.8157 N.pl3   1  LIG1        0.0000
     11 C11         1.0000    1.0000    1.0000 C.3     1  LIG1        0.0000
     12 C12         1.8779    1.8779    1.8779 C.ar    1  LIG1        0.0000
     13 C13         2.0001    1.5898    3.2325 C.ar    1  LIG1        0.0000
     14 C14         2.8000    2.3877    4.0441 C.ar    1  LIG1        0.0000
     15 C15         3.4705    3.4691    3.4823 C.ar    1  LIG1        0.0000
     16 C16         4.3470    4.3437    4.3634 C.3     1  LIG1        0.0000
     17 F17         4.0875    4.0861    5.6421 F       1  LIG1        0.0000
     18 F18         5.6271    4.0862    4.1102 F       1  LIG1        0.0000
     19 F19         4.0937    5.6243    4.1088 F       1  LIG1        0.0000
     20 C20         3.3549    3.7652    2.1280 C.ar    1  LIG1        0.0000
     21 C21         2.5533    2.9613    1.3245 C.ar    1  LIG1        0.0000
     22 N22         0.9339   -1.2482    2.0299 N.2     1  LIG1        0.0000
     23 H           0.0339   -4.0328    2.6111 H       1  LIG1        0.0000
     24 H          -1.7619   -1.4465    3.6742 H       1  LIG1        0.0000
     25 H          -1.3459    1.9351    1.9400 H       1  LIG1        0.0000
     26 H           0.2739    1.5549    0.5939 H       1  LIG1        0.0000
     27 H           1.5549    0.5939    0.2739 H       1  LIG1        0.0000
     28 H           1.5129    0.8089    3.6235 H       1  LIG1        0.0000
     29 H           2.8918    2.1863    5.0193 H       1  LIG1        0.0000
     30 H           3.8420    4.5463    1.7372 H       1  LIG1        0.0000
     31 H           2.4624    3.1619    0.3491 H       1  LIG1        0.0000
@<TRIPOS>BOND
     1     1     2    1
     2     2     3    1
     3     2     4    1
     4     4     5    1
     5     5     6    2
     6     6     7    1
     7     7     8    1
     8     7     9    1
     9     6    10    1
    10    10    11    1
    11    11    12    1
    12    12    13   ar
    13    13    14   ar
    14    14    15   ar
    15    15    16    1
    16    16    17    1
    17    16    18    1
    18    16    19    1
    19    15    20   ar
    20    20    21   ar
    21    21    12   ar
    22    10    22    1
    23    22     4    2
    24     2    23    1
    25     5    24    1
    26     7    25    1
    27    11    26    1
    28    11    27    1
    29    13    28    1
    30    14    29    1
    31    20    30    1
    32    21    31    1
