@<TRIPOS>MOLECULE
*****
 31 32 0 0 0
SMALL
USER_CHARGES

@<TRIPOS>ATOM
      1 F1         -2.2922   -0.5394    4.9259 F       1  LIG1        0.0000
      2 C2         -2.2195   -1.4111    3.9241 C.3     1  LIG1        0.0000
      3 F3         -3.3103   -1.3115    3.1697 F       1  LIG1        0.0000
      4 C4         -0.9910   -1.1120    3.0804 C.2     1  LIG1        0.0000
      5 C5          0.0894   -1.9854    2.8419 C.2     1  LIG1        0.0000
      6 C6          0.9458   -1.2951    2.0410 C.2     1  LIG1        0.0000
      7 C7          2.2730   -1.8023    1.4999 C.3     1  LIG1        0.0000
      8 F8          2.2442   -1.7879    0.1703 F       1  LIG1        0.0000
      9 F9          3.2564   -1.0173    1.9306 F       1  LIG1        0.0000
     10 N10         0.4030   -0.0674    1.8157 N.pl3   1  LIG1        0.0000
     11 C11         1.0000    1.0000    1.0000 C.3     1  LIG1        0.0000
     12 C12         1.8779    1.8779    1.8779 C.ar    1  LIG1        0.0000
     13 C13         2.0001    1.5898    3.2325 C.ar    1  LIG1        0.0000
     14 C14         2.8000    2.3877    4.0441 C.ar    1  LIG1        0.0000
     15 C15         3.4705    3.4691    3.4823 C.ar    1  LIG1        0.0000
     16 C16         4.3470    4.3437    4.3634 C.3     1  LIG1        0.0000
     17 F17         4.0875    4.0861    5.6421 F       1  LIG1        0.0000
     18 F18         5.6271    4.0862    4.1102 F       1  LIG1        0.0000
     19 F19         4.0937    5.6243    4.1088 F       1  LIG1        0.0000
     20 C20         3.3549    3.7652    2.1280 C.ar    1  LIG1        0.0000
     21 C21         2.5533    2.9613    1.3245 C.ar    1  LIG1        0.0000
     22 N22        -0.7458    0.0090    2.4455 N.2     1  LIG1        0.0000
     23 H          -2.1528   -2.3381    4.2930 H       1  LIG1        0.0000
     24 H           0.2026   -2.9166    3.1885 H       1  LIG1        0.0000
     25 H           2.4281   -2.7369    1.8199 H       1  LIG1        0.0000
     26 H           0.2739    1.5549    0.5939 H       1  LIG1        0.0000
     27 H           1.5549    0.5939    0.2739 H       1  LIG1        0.0000
     28 H           1.5129    0.8089    3.6235 H       1  LIG1        0.0000
     29 H           2.8918    2.1863    5.0193 H       1  LIG1        0.0000
     30 H           3.8420    4.5463    1.7372 H       1  LIG1        0.0000
     31 H           2.4624    3.1619    0.3491 H       1  LIG1        0.0000
@<TRIPOS>BOND
     1     1     2    1
     2     2     3    1
     3     2     4    1
     4     4     5    1
     5     5     6    2
     6     6     7    1
     7     7     8    1
     8     7     9    1
     9     6    10    1
    10    10    11    1
    11    11    12    1
    12    12    13   ar
    13    13    14   ar
    14    14    15   ar
    15    15    16    1
    16    16    17    1
    17    16    18    1
    18    16    19    1
    19    15    20   ar
    20    20    21   ar
    21    21    12   ar
    22    10    22    1
    23    22     4    2
    24     2    23    1
    25     5    24    1
    26     7    25    1
    27    11    26    1
    28    11    27    1
    29    13    28    1
    30    14    29    1
    31    20    30    1
    32    21    31    1
