@<TRIPOS>MOLECULE

  54   59
SMALL
USER_CHARGES
@<TRIPOS>ATOM
   1 C1           3.7226    -0.7135    -0.0371 C.3          1    LIG   0.0000
   2 C2           2.3965     0.0295    -0.0208 C.ar         1    LIG   0.0000
   3 C3           2.3924     1.4208    -0.0117 C.ar         1    LIG   0.0000
   4 C4           1.1760     2.0948     0.0029 C.ar         1    LIG   0.0000
   5 C5          -0.0165     1.3779     0.0092 C.ar         1    LIG   0.0000
   6 N6          -1.2403     2.0625     0.0249 N.pl3        1    LIG   0.0000
   7 C7          -1.7992     2.3698     1.2375 C.2          1    LIG   0.0000
   8 O8          -1.2118     2.0376     2.2586 O.2          1    LIG   0.0000
   9 C9          -3.0391     3.0623     1.2701 C.ar         1    LIG   0.0000
  10 C10         -3.6477     3.3960     2.4767 C.ar         1    LIG   0.0000
  11 C11         -4.8612     4.0744     2.5166 C.ar         1    LIG   0.0000
  12 C12         -5.4763     4.4246     1.3198 C.ar         1    LIG   0.0000
  13 C13         -4.8597     4.0866     0.1200 C.ar         1    LIG   0.0000
  14 C14         -3.6434     3.4073     0.0648 C.ar         1    LIG   0.0000
  15 N15         -3.0395     3.0734    -1.1264 N.pl3        1    LIG   0.0000
  16 C16         -3.3733     3.2586    -2.4411 C.2          1    LIG   0.0000
  17 S17         -4.6808     3.9877    -3.0401 S.2          1    LIG   0.0000
  18 N18         -2.3813     2.7054    -3.1889 N.pl3        1    LIG   0.0000
  19 C19         -2.3380     2.6821    -4.6573 C.3          1    LIG   0.0000
  20 N20         -2.9994     1.4632    -5.1480 N.3          1    LIG   0.0000
  21 C21         -3.2040     1.5352    -6.6009 C.3          1    LIG   0.0000
  22 C22         -4.1069     0.3750    -6.9813 C.3          1    LIG   0.0000
  23 N23         -3.6328    -0.9111    -6.4447 N.pl3        1    LIG   0.0000
  24 C24         -3.9480    -2.1865    -6.8348 C.2          1    LIG   0.0000
  25 N25         -3.3361    -3.0445    -6.0437 N.2          1    LIG   1.0000
  26 C26         -2.5910    -2.3486    -5.1281 C.2          1    LIG   0.0000
  27 C27         -2.7616    -1.0172    -5.4023 C.2          1    LIG   0.0000
  28 C28         -2.1900     0.2740    -4.8324 C.3          1    LIG   0.0000
  29 N29         -1.4785     2.2000    -2.3853 N.2          1    LIG   0.0000
  30 C30         -1.8574     2.4094    -1.1451 C.2          1    LIG   0.0000
  31 C31         -0.0122    -0.0130    -0.0008 C.ar         1    LIG   0.0000
  32 C32          1.2044    -0.6870    -0.0161 C.ar         1    LIG   0.0000
  33 H           -3.4044    -4.0405    -6.1020 H            1    LIG   0.0000
  34 H            3.5525    -1.6989    -0.0421 H            1    LIG   0.0000
  35 H            4.2367    -0.4599    -0.8565 H            1    LIG   0.0000
  36 H            4.2509    -0.4705     0.7764 H            1    LIG   0.0000
  37 H            3.2532     1.9298    -0.0157 H            1    LIG   0.0000
  38 H            1.1584     3.0946     0.0090 H            1    LIG   0.0000
  39 H           -3.2019     3.1420     3.3350 H            1    LIG   0.0000
  40 H           -5.2846     4.3065     3.3923 H            1    LIG   0.0000
  41 H           -6.3493     4.9125     1.3217 H            1    LIG   0.0000
  42 H           -5.3066     4.3410    -0.7377 H            1    LIG   0.0000
  43 H           -1.3859     2.6907    -4.9629 H            1    LIG   0.0000
  44 H           -2.8111     3.4861    -5.0175 H            1    LIG   0.0000
  45 H           -2.3272     1.4577    -7.0753 H            1    LIG   0.0000
  46 H           -3.6388     2.4024    -6.8437 H            1    LIG   0.0000
  47 H           -5.0240     0.5524    -6.6243 H            1    LIG   0.0000
  48 H           -4.1440     0.3117    -7.9786 H            1    LIG   0.0000
  49 H           -4.5471    -2.4277    -7.5983 H            1    LIG   0.0000
  50 H           -2.0295    -2.7386    -4.3983 H            1    LIG   0.0000
  51 H           -2.1340     0.1838    -3.8380 H            1    LIG   0.0000
  52 H           -1.2724     0.4068    -5.2072 H            1    LIG   0.0000
  53 H           -0.8729    -0.5220     0.0030 H            1    LIG   0.0000
  54 H            1.2219    -1.6868    -0.0238 H            1    LIG   0.0000
@<TRIPOS>BOND
   1        1        2 1
   2        2        3 ar
   3        3        4 ar
   4        4        5 ar
   5        5        6 1
   6        6        7 1
   7        7        8 2
   8        7        9 1
   9        9       10 ar
  10       10       11 ar
  11       11       12 ar
  12       12       13 ar
  13       13       14 ar
  14       14        9 ar
  15       14       15 1
  16       15       16 1
  17       16       17 2
  18       16       18 1
  19       18       19 1
  20       19       20 1
  21       20       21 1
  22       21       22 1
  23       22       23 1
  24       23       24 1
  25       24       25 2
  26       25       26 1
  27       26       27 2
  28       27       23 1
  29       27       28 1
  30       28       20 1
  31       18       29 1
  32       29       30 2
  33       30        6 1
  34       30       15 1
  35        5       31 ar
  36       31       32 ar
  37       32        2 ar
  38       25       33 1
  39        1       34 1
  40        1       35 1
  41        1       36 1
  42        3       37 1
  43        4       38 1
  44       10       39 1
  45       11       40 1
  46       12       41 1
  47       13       42 1
  48       19       43 1
  49       19       44 1
  50       21       45 1
  51       21       46 1
  52       22       47 1
  53       22       48 1
  54       24       49 1
  55       26       50 1
  56       28       51 1
  57       28       52 1
  58       31       53 1
  59       32       54 1

@<TRIPOS>MOLECULE

  54   59
SMALL
USER_CHARGES
@<TRIPOS>ATOM
   1 C1           3.7226    -0.7135    -0.0371 C.3          1    LIG   0.0000
   2 C2           2.3965     0.0295    -0.0208 C.ar         1    LIG   0.0000
   3 C3           2.3924     1.4208    -0.0117 C.ar         1    LIG   0.0000
   4 C4           1.1760     2.0948     0.0029 C.ar         1    LIG   0.0000
   5 C5          -0.0165     1.3779     0.0092 C.ar         1    LIG   0.0000
   6 N6          -1.2403     2.0625     0.0249 N.pl3        1    LIG   0.0000
   7 C7          -1.7992     2.3698     1.2375 C.2          1    LIG   0.0000
   8 O8          -1.2118     2.0376     2.2586 O.2          1    LIG   0.0000
   9 C9          -3.0391     3.0623     1.2701 C.ar         1    LIG   0.0000
  10 C10         -3.6477     3.3960     2.4767 C.ar         1    LIG   0.0000
  11 C11         -4.8612     4.0744     2.5166 C.ar         1    LIG   0.0000
  12 C12         -5.4763     4.4246     1.3198 C.ar         1    LIG   0.0000
  13 C13         -4.8597     4.0866     0.1200 C.ar         1    LIG   0.0000
  14 C14         -3.6434     3.4073     0.0648 C.ar         1    LIG   0.0000
  15 N15         -3.0395     3.0734    -1.1264 N.pl3        1    LIG   0.0000
  16 C16         -3.3733     3.2586    -2.4411 C.2          1    LIG   0.0000
  17 S17         -4.6808     3.9877    -3.0401 S.2          1    LIG   0.0000
  18 N18         -2.3813     2.7054    -3.1889 N.pl3        1    LIG   0.0000
  19 C19         -2.3380     2.6821    -4.6573 C.3          1    LIG   0.0000
  20 N20         -2.9994     1.4632    -5.1480 N.3          1    LIG   0.0000
  21 C21         -2.4639     0.2755    -4.4694 C.3          1    LIG   0.0000
  22 C22         -3.0049    -0.9386    -5.2038 C.3          1    LIG   0.0000
  23 N23         -4.4644    -0.8855    -5.3875 N.pl3        1    LIG   0.0000
  24 C24         -5.3437    -1.8979    -5.6707 C.2          1    LIG   0.0000
  25 N25         -6.5542    -1.3948    -5.8041 N.2          1    LIG   1.0000
  26 C26         -6.4971    -0.0421    -5.5928 C.2          1    LIG   0.0000
  27 C27         -5.1924     0.2636    -5.3074 C.2          1    LIG   0.0000
  28 C28         -4.4524     1.5366    -4.9191 C.3          1    LIG   0.0000
  29 N29         -1.4785     2.2000    -2.3853 N.2          1    LIG   0.0000
  30 C30         -1.8574     2.4094    -1.1451 C.2          1    LIG   0.0000
  31 C31         -0.0122    -0.0130    -0.0008 C.ar         1    LIG   0.0000
  32 C32          1.2044    -0.6870    -0.0161 C.ar         1    LIG   0.0000
  33 H           -7.3795    -1.9150    -6.0237 H            1    LIG   0.0000
  34 H            3.5525    -1.6989    -0.0421 H            1    LIG   0.0000
  35 H            4.2367    -0.4599    -0.8565 H            1    LIG   0.0000
  36 H            4.2509    -0.4705     0.7764 H            1    LIG   0.0000
  37 H            3.2532     1.9298    -0.0157 H            1    LIG   0.0000
  38 H            1.1584     3.0946     0.0090 H            1    LIG   0.0000
  39 H           -3.2019     3.1420     3.3350 H            1    LIG   0.0000
  40 H           -5.2846     4.3065     3.3923 H            1    LIG   0.0000
  41 H           -6.3493     4.9125     1.3217 H            1    LIG   0.0000
  42 H           -5.3066     4.3410    -0.7377 H            1    LIG   0.0000
  43 H           -1.3859     2.6907    -4.9629 H            1    LIG   0.0000
  44 H           -2.8111     3.4861    -5.0175 H            1    LIG   0.0000
  45 H           -2.7632     0.2611    -3.5154 H            1    LIG   0.0000
  46 H           -1.4645     0.2811    -4.5052 H            1    LIG   0.0000
  47 H           -2.5706    -0.9886    -6.1032 H            1    LIG   0.0000
  48 H           -2.7779    -1.7584    -4.6780 H            1    LIG   0.0000
  49 H           -5.1046    -2.8646    -5.7616 H            1    LIG   0.0000
  50 H           -7.2623     0.6001    -5.6382 H            1    LIG   0.0000
  51 H           -4.8202     2.2939    -5.4587 H            1    LIG   0.0000
  52 H           -4.6115     1.7115    -3.9474 H            1    LIG   0.0000
  53 H           -0.8729    -0.5220     0.0030 H            1    LIG   0.0000
  54 H            1.2219    -1.6868    -0.0238 H            1    LIG   0.0000
@<TRIPOS>BOND
   1        1        2 1
   2        2        3 ar
   3        3        4 ar
   4        4        5 ar
   5        5        6 1
   6        6        7 1
   7        7        8 2
   8        7        9 1
   9        9       10 ar
  10       10       11 ar
  11       11       12 ar
  12       12       13 ar
  13       13       14 ar
  14       14        9 ar
  15       14       15 1
  16       15       16 1
  17       16       17 2
  18       16       18 1
  19       18       19 1
  20       19       20 1
  21       20       21 1
  22       21       22 1
  23       22       23 1
  24       23       24 1
  25       24       25 2
  26       25       26 1
  27       26       27 2
  28       27       23 1
  29       27       28 1
  30       28       20 1
  31       18       29 1
  32       29       30 2
  33       30        6 1
  34       30       15 1
  35        5       31 ar
  36       31       32 ar
  37       32        2 ar
  38       25       33 1
  39        1       34 1
  40        1       35 1
  41        1       36 1
  42        3       37 1
  43        4       38 1
  44       10       39 1
  45       11       40 1
  46       12       41 1
  47       13       42 1
  48       19       43 1
  49       19       44 1
  50       21       45 1
  51       21       46 1
  52       22       47 1
  53       22       48 1
  54       24       49 1
  55       26       50 1
  56       28       51 1
  57       28       52 1
  58       31       53 1
  59       32       54 1

@<TRIPOS>MOLECULE

  54   59
SMALL
USER_CHARGES
@<TRIPOS>ATOM
   1 C1           3.7226    -0.7135    -0.0371 C.3          1    LIG   0.0000
   2 C2           2.3965     0.0295    -0.0208 C.ar         1    LIG   0.0000
   3 C3           2.3924     1.4208    -0.0117 C.ar         1    LIG   0.0000
   4 C4           1.1760     2.0948     0.0029 C.ar         1    LIG   0.0000
   5 C5          -0.0165     1.3779     0.0092 C.ar         1    LIG   0.0000
   6 N6          -1.2403     2.0625     0.0249 N.pl3        1    LIG   0.0000
   7 C7          -1.7992     2.3698     1.2375 C.2          1    LIG   0.0000
   8 O8          -1.2118     2.0376     2.2586 O.2          1    LIG   0.0000
   9 C9          -3.0391     3.0623     1.2701 C.ar         1    LIG   0.0000
  10 C10         -3.6477     3.3960     2.4767 C.ar         1    LIG   0.0000
  11 C11         -4.8612     4.0744     2.5166 C.ar         1    LIG   0.0000
  12 C12         -5.4763     4.4246     1.3198 C.ar         1    LIG   0.0000
  13 C13         -4.8597     4.0866     0.1200 C.ar         1    LIG   0.0000
  14 C14         -3.6434     3.4073     0.0648 C.ar         1    LIG   0.0000
  15 N15         -3.0395     3.0734    -1.1264 N.pl3        1    LIG   0.0000
  16 C16         -3.3733     3.2586    -2.4411 C.2          1    LIG   0.0000
  17 S17         -4.6808     3.9877    -3.0401 S.2          1    LIG   0.0000
  18 N18         -2.3813     2.7054    -3.1889 N.pl3        1    LIG   0.0000
  19 C19         -2.3380     2.6821    -4.6573 C.3          1    LIG   0.0000
  20 N20         -2.9994     1.4632    -5.1480 N.3          1    LIG   0.0000
  21 C21         -4.3091     1.2912    -4.5054 C.3          1    LIG   0.0000
  22 C22         -4.8032    -0.0985    -4.8667 C.3          1    LIG   0.0000
  23 N23         -4.7378    -0.3645    -6.3130 N.pl3        1    LIG   0.0000
  24 C24         -5.3878    -1.3173    -7.0532 C.2          1    LIG   0.0000
  25 N25         -4.9941    -1.2333    -8.3079 N.2          1    LIG   1.0000
  26 C26         -4.0899    -0.2098    -8.4205 C.2          1    LIG   0.0000
  27 C27         -3.9555     0.3442    -7.1747 C.2          1    LIG   0.0000
  28 C28         -3.1822     1.5272    -6.6080 C.3          1    LIG   0.0000
  29 N29         -1.4785     2.2000    -2.3853 N.2          1    LIG   0.0000
  30 C30         -1.8574     2.4094    -1.1451 C.2          1    LIG   0.0000
  31 C31         -0.0122    -0.0130    -0.0008 C.ar         1    LIG   0.0000
  32 C32          1.2044    -0.6870    -0.0161 C.ar         1    LIG   0.0000
  33 H           -5.3045    -1.8203    -9.0556 H            1    LIG   0.0000
  34 H            3.5525    -1.6989    -0.0421 H            1    LIG   0.0000
  35 H            4.2367    -0.4599    -0.8565 H            1    LIG   0.0000
  36 H            4.2509    -0.4705     0.7764 H            1    LIG   0.0000
  37 H            3.2532     1.9298    -0.0157 H            1    LIG   0.0000
  38 H            1.1584     3.0946     0.0090 H            1    LIG   0.0000
  39 H           -3.2019     3.1420     3.3350 H            1    LIG   0.0000
  40 H           -5.2846     4.3065     3.3923 H            1    LIG   0.0000
  41 H           -6.3493     4.9125     1.3217 H            1    LIG   0.0000
  42 H           -5.3066     4.3410    -0.7377 H            1    LIG   0.0000
  43 H           -1.3859     2.6907    -4.9629 H            1    LIG   0.0000
  44 H           -2.8111     3.4861    -5.0175 H            1    LIG   0.0000
  45 H           -4.9498     1.9815    -4.8417 H            1    LIG   0.0000
  46 H           -4.2184     1.3760    -3.5131 H            1    LIG   0.0000
  47 H           -4.2383    -0.7729    -4.3912 H            1    LIG   0.0000
  48 H           -5.7530    -0.1886    -4.5672 H            1    LIG   0.0000
  49 H           -6.0547    -1.9722    -6.6977 H            1    LIG   0.0000
  50 H           -3.6178     0.0780    -9.2537 H            1    LIG   0.0000
  51 H           -2.2803     1.5520    -7.0393 H            1    LIG   0.0000
  52 H           -3.6802     2.3659    -6.8284 H            1    LIG   0.0000
  53 H           -0.8729    -0.5220     0.0030 H            1    LIG   0.0000
  54 H            1.2219    -1.6868    -0.0238 H            1    LIG   0.0000
@<TRIPOS>BOND
   1        1        2 1
   2        2        3 ar
   3        3        4 ar
   4        4        5 ar
   5        5        6 1
   6        6        7 1
   7        7        8 2
   8        7        9 1
   9        9       10 ar
  10       10       11 ar
  11       11       12 ar
  12       12       13 ar
  13       13       14 ar
  14       14        9 ar
  15       14       15 1
  16       15       16 1
  17       16       17 2
  18       16       18 1
  19       18       19 1
  20       19       20 1
  21       20       21 1
  22       21       22 1
  23       22       23 1
  24       23       24 1
  25       24       25 2
  26       25       26 1
  27       26       27 2
  28       27       23 1
  29       27       28 1
  30       28       20 1
  31       18       29 1
  32       29       30 2
  33       30        6 1
  34       30       15 1
  35        5       31 ar
  36       31       32 ar
  37       32        2 ar
  38       25       33 1
  39        1       34 1
  40        1       35 1
  41        1       36 1
  42        3       37 1
  43        4       38 1
  44       10       39 1
  45       11       40 1
  46       12       41 1
  47       13       42 1
  48       19       43 1
  49       19       44 1
  50       21       45 1
  51       21       46 1
  52       22       47 1
  53       22       48 1
  54       24       49 1
  55       26       50 1
  56       28       51 1
  57       28       52 1
  58       31       53 1
  59       32       54 1

@<TRIPOS>MOLECULE

  54   59
SMALL
USER_CHARGES
@<TRIPOS>ATOM
   1 C1           3.7226    -0.7135    -0.0371 C.3          1    LIG   0.0000
   2 C2           2.3965     0.0295    -0.0208 C.ar         1    LIG   0.0000
   3 C3           2.3924     1.4208    -0.0117 C.ar         1    LIG   0.0000
   4 C4           1.1760     2.0948     0.0029 C.ar         1    LIG   0.0000
   5 C5          -0.0165     1.3779     0.0092 C.ar         1    LIG   0.0000
   6 N6          -1.2403     2.0625     0.0249 N.pl3        1    LIG   0.0000
   7 C7          -1.7992     2.3698     1.2375 C.2          1    LIG   0.0000
   8 O8          -1.2118     2.0376     2.2586 O.2          1    LIG   0.0000
   9 C9          -3.0391     3.0623     1.2701 C.ar         1    LIG   0.0000
  10 C10         -3.6477     3.3960     2.4767 C.ar         1    LIG   0.0000
  11 C11         -4.8612     4.0744     2.5166 C.ar         1    LIG   0.0000
  12 C12         -5.4763     4.4246     1.3198 C.ar         1    LIG   0.0000
  13 C13         -4.8597     4.0866     0.1200 C.ar         1    LIG   0.0000
  14 C14         -3.6434     3.4073     0.0648 C.ar         1    LIG   0.0000
  15 N15         -3.0395     3.0734    -1.1264 N.pl3        1    LIG   0.0000
  16 C16         -3.3733     3.2586    -2.4411 C.2          1    LIG   0.0000
  17 S17         -4.6808     3.9877    -3.0401 S.2          1    LIG   0.0000
  18 N18         -2.3813     2.7054    -3.1889 N.pl3        1    LIG   0.0000
  19 C19         -2.3380     2.6821    -4.6573 C.3          1    LIG   0.0000
  20 N20         -1.6478     3.8853    -5.1467 N.3          1    LIG   0.0000
  21 C21         -1.3581     3.7674    -6.5820 C.3          1    LIG   0.0000
  22 C22         -0.4333     4.9158    -6.9453 C.3          1    LIG   0.0000
  23 N23         -0.9370     6.2178    -6.4786 N.pl3        1    LIG   0.0000
  24 C24         -0.5982     7.4805    -6.8898 C.2          1    LIG   0.0000
  25 N25         -1.2547     8.3626    -6.1638 N.2          1    LIG   1.0000
  26 C26         -2.0531     7.6955    -5.2719 C.2          1    LIG   0.0000
  27 C27         -1.8680     6.3562    -5.4932 C.2          1    LIG   0.0000
  28 C28         -2.4733     5.0832    -4.9172 C.3          1    LIG   0.0000
  29 N29         -1.4785     2.2000    -2.3853 N.2          1    LIG   0.0000
  30 C30         -1.8574     2.4094    -1.1451 C.2          1    LIG   0.0000
  31 C31         -0.0122    -0.0130    -0.0008 C.ar         1    LIG   0.0000
  32 C32          1.2044    -0.6870    -0.0161 C.ar         1    LIG   0.0000
  33 H           -1.1823     9.3563    -6.2496 H            1    LIG   0.0000
  34 H            3.5525    -1.6989    -0.0421 H            1    LIG   0.0000
  35 H            4.2367    -0.4599    -0.8565 H            1    LIG   0.0000
  36 H            4.2509    -0.4705     0.7764 H            1    LIG   0.0000
  37 H            3.2532     1.9298    -0.0157 H            1    LIG   0.0000
  38 H            1.1584     3.0946     0.0090 H            1    LIG   0.0000
  39 H           -3.2019     3.1420     3.3350 H            1    LIG   0.0000
  40 H           -5.2846     4.3065     3.3923 H            1    LIG   0.0000
  41 H           -6.3493     4.9125     1.3217 H            1    LIG   0.0000
  42 H           -5.3066     4.3410    -0.7377 H            1    LIG   0.0000
  43 H           -3.2705     2.6628    -5.0180 H            1    LIG   0.0000
  44 H           -1.8453     1.8674    -4.9633 H            1    LIG   0.0000
  45 H           -2.2055     3.8290    -7.1094 H            1    LIG   0.0000
  46 H           -0.9106     2.8933    -6.7712 H            1    LIG   0.0000
  47 H            0.4610     4.7507    -6.5295 H            1    LIG   0.0000
  48 H           -0.3376     4.9474    -7.9402 H            1    LIG   0.0000
  49 H            0.0450     7.6978    -7.6240 H            1    LIG   0.0000
  50 H           -2.6563     8.1079    -4.5892 H            1    LIG   0.0000
  51 H           -2.5876     5.2049    -3.9312 H            1    LIG   0.0000
  52 H           -3.3673     4.9377    -5.3409 H            1    LIG   0.0000
  53 H           -0.8729    -0.5220     0.0030 H            1    LIG   0.0000
  54 H            1.2219    -1.6868    -0.0238 H            1    LIG   0.0000
@<TRIPOS>BOND
   1        1        2 1
   2        2        3 ar
   3        3        4 ar
   4        4        5 ar
   5        5        6 1
   6        6        7 1
   7        7        8 2
   8        7        9 1
   9        9       10 ar
  10       10       11 ar
  11       11       12 ar
  12       12       13 ar
  13       13       14 ar
  14       14        9 ar
  15       14       15 1
  16       15       16 1
  17       16       17 2
  18       16       18 1
  19       18       19 1
  20       19       20 1
  21       20       21 1
  22       21       22 1
  23       22       23 1
  24       23       24 1
  25       24       25 2
  26       25       26 1
  27       26       27 2
  28       27       23 1
  29       27       28 1
  30       28       20 1
  31       18       29 1
  32       29       30 2
  33       30        6 1
  34       30       15 1
  35        5       31 ar
  36       31       32 ar
  37       32        2 ar
  38       25       33 1
  39        1       34 1
  40        1       35 1
  41        1       36 1
  42        3       37 1
  43        4       38 1
  44       10       39 1
  45       11       40 1
  46       12       41 1
  47       13       42 1
  48       19       43 1
  49       19       44 1
  50       21       45 1
  51       21       46 1
  52       22       47 1
  53       22       48 1
  54       24       49 1
  55       26       50 1
  56       28       51 1
  57       28       52 1
  58       31       53 1
  59       32       54 1

@<TRIPOS>MOLECULE

  54   59
SMALL
USER_CHARGES
@<TRIPOS>ATOM
   1 C1           3.7226    -0.7135    -0.0371 C.3          1    LIG   0.0000
   2 C2           2.3965     0.0295    -0.0208 C.ar         1    LIG   0.0000
   3 C3           2.3924     1.4208    -0.0117 C.ar         1    LIG   0.0000
   4 C4           1.1760     2.0948     0.0029 C.ar         1    LIG   0.0000
   5 C5          -0.0165     1.3779     0.0092 C.ar         1    LIG   0.0000
   6 N6          -1.2403     2.0625     0.0249 N.pl3        1    LIG   0.0000
   7 C7          -1.7992     2.3698     1.2375 C.2          1    LIG   0.0000
   8 O8          -1.2118     2.0376     2.2586 O.2          1    LIG   0.0000
   9 C9          -3.0391     3.0623     1.2701 C.ar         1    LIG   0.0000
  10 C10         -3.6477     3.3960     2.4767 C.ar         1    LIG   0.0000
  11 C11         -4.8612     4.0744     2.5166 C.ar         1    LIG   0.0000
  12 C12         -5.4763     4.4246     1.3198 C.ar         1    LIG   0.0000
  13 C13         -4.8597     4.0866     0.1200 C.ar         1    LIG   0.0000
  14 C14         -3.6434     3.4073     0.0648 C.ar         1    LIG   0.0000
  15 N15         -3.0395     3.0734    -1.1264 N.pl3        1    LIG   0.0000
  16 C16         -3.3733     3.2586    -2.4411 C.2          1    LIG   0.0000
  17 S17         -4.6808     3.9877    -3.0401 S.2          1    LIG   0.0000
  18 N18         -2.3813     2.7054    -3.1889 N.pl3        1    LIG   0.0000
  19 C19         -2.3380     2.6821    -4.6573 C.3          1    LIG   0.0000
  20 N20         -1.6478     3.8853    -5.1467 N.3          1    LIG   0.0000
  21 C21         -2.2212     5.0935    -4.5389 C.3          1    LIG   0.0000
  22 C22         -1.6368     6.2842    -5.2784 C.3          1    LIG   0.0000
  23 N23         -0.1691     6.2266    -5.3741 N.pl3        1    LIG   0.0000
  24 C24          0.7263     7.2303    -5.6370 C.2          1    LIG   0.0000
  25 N25          1.9421     6.7244    -5.6830 N.2          1    LIG   1.0000
  26 C26          1.8714     5.3790    -5.4325 C.2          1    LIG   0.0000
  27 C27          0.5519     5.0813    -5.2148 C.2          1    LIG   0.0000
  28 C28         -0.2108     3.8206    -4.8305 C.3          1    LIG   0.0000
  29 N29         -1.4785     2.2000    -2.3853 N.2          1    LIG   0.0000
  30 C30         -1.8574     2.4094    -1.1451 C.2          1    LIG   0.0000
  31 C31         -0.0122    -0.0130    -0.0008 C.ar         1    LIG   0.0000
  32 C32          1.2044    -0.6870    -0.0161 C.ar         1    LIG   0.0000
  33 H            2.7794     7.2382    -5.8700 H            1    LIG   0.0000
  34 H            3.5525    -1.6989    -0.0421 H            1    LIG   0.0000
  35 H            4.2367    -0.4599    -0.8565 H            1    LIG   0.0000
  36 H            4.2509    -0.4705     0.7764 H            1    LIG   0.0000
  37 H            3.2532     1.9298    -0.0157 H            1    LIG   0.0000
  38 H            1.1584     3.0946     0.0090 H            1    LIG   0.0000
  39 H           -3.2019     3.1420     3.3350 H            1    LIG   0.0000
  40 H           -5.2846     4.3065     3.3923 H            1    LIG   0.0000
  41 H           -6.3493     4.9125     1.3217 H            1    LIG   0.0000
  42 H           -5.3066     4.3410    -0.7377 H            1    LIG   0.0000
  43 H           -3.2705     2.6628    -5.0180 H            1    LIG   0.0000
  44 H           -1.8453     1.8674    -4.9633 H            1    LIG   0.0000
  45 H           -1.9785     5.1385    -3.5698 H            1    LIG   0.0000
  46 H           -3.2167     5.0858    -4.6332 H            1    LIG   0.0000
  47 H           -2.0174     6.3052    -6.2029 H            1    LIG   0.0000
  48 H           -1.8935     7.1200    -4.7931 H            1    LIG   0.0000
  49 H            0.4939     8.1934    -5.7725 H            1    LIG   0.0000
  50 H            2.6374     4.7364    -5.4124 H            1    LIG   0.0000
  51 H            0.1874     3.0469    -5.3232 H            1    LIG   0.0000
  52 H           -0.1093     3.6768    -3.8461 H            1    LIG   0.0000
  53 H           -0.8729    -0.5220     0.0030 H            1    LIG   0.0000
  54 H            1.2219    -1.6868    -0.0238 H            1    LIG   0.0000
@<TRIPOS>BOND
   1        1        2 1
   2        2        3 ar
   3        3        4 ar
   4        4        5 ar
   5        5        6 1
   6        6        7 1
   7        7        8 2
   8        7        9 1
   9        9       10 ar
  10       10       11 ar
  11       11       12 ar
  12       12       13 ar
  13       13       14 ar
  14       14        9 ar
  15       14       15 1
  16       15       16 1
  17       16       17 2
  18       16       18 1
  19       18       19 1
  20       19       20 1
  21       20       21 1
  22       21       22 1
  23       22       23 1
  24       23       24 1
  25       24       25 2
  26       25       26 1
  27       26       27 2
  28       27       23 1
  29       27       28 1
  30       28       20 1
  31       18       29 1
  32       29       30 2
  33       30        6 1
  34       30       15 1
  35        5       31 ar
  36       31       32 ar
  37       32        2 ar
  38       25       33 1
  39        1       34 1
  40        1       35 1
  41        1       36 1
  42        3       37 1
  43        4       38 1
  44       10       39 1
  45       11       40 1
  46       12       41 1
  47       13       42 1
  48       19       43 1
  49       19       44 1
  50       21       45 1
  51       21       46 1
  52       22       47 1
  53       22       48 1
  54       24       49 1
  55       26       50 1
  56       28       51 1
  57       28       52 1
  58       31       53 1
  59       32       54 1

@<TRIPOS>MOLECULE

  54   59
SMALL
USER_CHARGES
@<TRIPOS>ATOM
   1 C1           3.7226    -0.7135    -0.0371 C.3          1    LIG   0.0000
   2 C2           2.3965     0.0295    -0.0208 C.ar         1    LIG   0.0000
   3 C3           2.3924     1.4208    -0.0117 C.ar         1    LIG   0.0000
   4 C4           1.1760     2.0948     0.0029 C.ar         1    LIG   0.0000
   5 C5          -0.0165     1.3779     0.0092 C.ar         1    LIG   0.0000
   6 N6          -1.2403     2.0625     0.0249 N.pl3        1    LIG   0.0000
   7 C7          -1.7992     2.3698     1.2375 C.2          1    LIG   0.0000
   8 O8          -1.2118     2.0376     2.2586 O.2          1    LIG   0.0000
   9 C9          -3.0391     3.0623     1.2701 C.ar         1    LIG   0.0000
  10 C10         -3.6477     3.3960     2.4767 C.ar         1    LIG   0.0000
  11 C11         -4.8612     4.0744     2.5166 C.ar         1    LIG   0.0000
  12 C12         -5.4763     4.4246     1.3198 C.ar         1    LIG   0.0000
  13 C13         -4.8597     4.0866     0.1200 C.ar         1    LIG   0.0000
  14 C14         -3.6434     3.4073     0.0648 C.ar         1    LIG   0.0000
  15 N15         -3.0395     3.0734    -1.1264 N.pl3        1    LIG   0.0000
  16 C16         -3.3733     3.2586    -2.4411 C.2          1    LIG   0.0000
  17 S17         -4.6808     3.9877    -3.0401 S.2          1    LIG   0.0000
  18 N18         -2.3813     2.7054    -3.1889 N.pl3        1    LIG   0.0000
  19 C19         -2.3380     2.6821    -4.6573 C.3          1    LIG   0.0000
  20 N20         -1.6478     3.8853    -5.1467 N.3          1    LIG   0.0000
  21 C21         -0.3780     4.0789    -4.4339 C.3          1    LIG   0.0000
  22 C22          0.1378     5.4569    -4.8095 C.3          1    LIG   0.0000
  23 N23          0.1579     5.6767    -6.2648 N.pl3        1    LIG   0.0000
  24 C24          0.8511     6.6062    -6.9954 C.2          1    LIG   0.0000
  25 N25          0.5319     6.4820    -8.2678 N.2          1    LIG   1.0000
  26 C26         -0.3651     5.4546    -8.4008 C.2          1    LIG   0.0000
  27 C27         -0.5731     4.9403    -7.1481 C.2          1    LIG   0.0000
  28 C28         -1.3795     3.7751    -6.5906 C.3          1    LIG   0.0000
  29 N29         -1.4785     2.2000    -2.3853 N.2          1    LIG   0.0000
  30 C30         -1.8574     2.4094    -1.1451 C.2          1    LIG   0.0000
  31 C31         -0.0122    -0.0130    -0.0008 C.ar         1    LIG   0.0000
  32 C32          1.2044    -0.6870    -0.0161 C.ar         1    LIG   0.0000
  33 H            0.8863     7.0452    -9.0143 H            1    LIG   0.0000
  34 H            3.5525    -1.6989    -0.0421 H            1    LIG   0.0000
  35 H            4.2367    -0.4599    -0.8565 H            1    LIG   0.0000
  36 H            4.2509    -0.4705     0.7764 H            1    LIG   0.0000
  37 H            3.2532     1.9298    -0.0157 H            1    LIG   0.0000
  38 H            1.1584     3.0946     0.0090 H            1    LIG   0.0000
  39 H           -3.2019     3.1420     3.3350 H            1    LIG   0.0000
  40 H           -5.2846     4.3065     3.3923 H            1    LIG   0.0000
  41 H           -6.3493     4.9125     1.3217 H            1    LIG   0.0000
  42 H           -5.3066     4.3410    -0.7377 H            1    LIG   0.0000
  43 H           -3.2705     2.6628    -5.0180 H            1    LIG   0.0000
  44 H           -1.8453     1.8674    -4.9633 H            1    LIG   0.0000
  45 H            0.2807     3.3789    -4.7098 H            1    LIG   0.0000
  46 H           -0.5271     4.0256    -3.4465 H            1    LIG   0.0000
  47 H           -0.4535     6.1455    -4.3897 H            1    LIG   0.0000
  48 H            1.0684     5.5574    -4.4576 H            1    LIG   0.0000
  49 H            1.4965     7.2726    -6.6223 H            1    LIG   0.0000
  50 H           -0.7876     5.1400    -9.2508 H            1    LIG   0.0000
  51 H           -2.2545     3.7358    -7.0732 H            1    LIG   0.0000
  52 H           -0.8702     2.9303    -6.7546 H            1    LIG   0.0000
  53 H           -0.8729    -0.5220     0.0030 H            1    LIG   0.0000
  54 H            1.2219    -1.6868    -0.0238 H            1    LIG   0.0000
@<TRIPOS>BOND
   1        1        2 1
   2        2        3 ar
   3        3        4 ar
   4        4        5 ar
   5        5        6 1
   6        6        7 1
   7        7        8 2
   8        7        9 1
   9        9       10 ar
  10       10       11 ar
  11       11       12 ar
  12       12       13 ar
  13       13       14 ar
  14       14        9 ar
  15       14       15 1
  16       15       16 1
  17       16       17 2
  18       16       18 1
  19       18       19 1
  20       19       20 1
  21       20       21 1
  22       21       22 1
  23       22       23 1
  24       23       24 1
  25       24       25 2
  26       25       26 1
  27       26       27 2
  28       27       23 1
  29       27       28 1
  30       28       20 1
  31       18       29 1
  32       29       30 2
  33       30        6 1
  34       30       15 1
  35        5       31 ar
  36       31       32 ar
  37       32        2 ar
  38       25       33 1
  39        1       34 1
  40        1       35 1
  41        1       36 1
  42        3       37 1
  43        4       38 1
  44       10       39 1
  45       11       40 1
  46       12       41 1
  47       13       42 1
  48       19       43 1
  49       19       44 1
  50       21       45 1
  51       21       46 1
  52       22       47 1
  53       22       48 1
  54       24       49 1
  55       26       50 1
  56       28       51 1
  57       28       52 1
  58       31       53 1
  59       32       54 1

@<TRIPOS>MOLECULE

  54   59
SMALL
USER_CHARGES
@<TRIPOS>ATOM
   1 C1           3.7226    -0.7135    -0.0371 C.3          1    LIG   0.0000
   2 C2           2.3965     0.0295    -0.0208 C.ar         1    LIG   0.0000
   3 C3           2.3924     1.4208    -0.0117 C.ar         1    LIG   0.0000
   4 C4           1.1760     2.0948     0.0029 C.ar         1    LIG   0.0000
   5 C5          -0.0165     1.3779     0.0092 C.ar         1    LIG   0.0000
   6 N6          -1.2403     2.0625     0.0249 N.pl3        1    LIG   0.0000
   7 C7          -2.2656     1.5815    -0.7461 C.2          1    LIG   0.0000
   8 O8          -2.0769     0.5753    -1.4171 O.2          1    LIG   0.0000
   9 C9          -3.5113     2.2643    -0.7417 C.ar         1    LIG   0.0000
  10 C10         -4.5827     1.8159    -1.5088 C.ar         1    LIG   0.0000
  11 C11         -5.8054     2.4787    -1.5093 C.ar         1    LIG   0.0000
  12 C12         -5.9550     3.6159    -0.7230 C.ar         1    LIG   0.0000
  13 C13         -4.8782     4.0553     0.0397 C.ar         1    LIG   0.0000
  14 C14         -3.6472     3.4007     0.0502 C.ar         1    LIG   0.0000
  15 N15         -2.5845     3.8424     0.8056 N.pl3        1    LIG   0.0000
  16 C16         -2.4028     4.8995     1.6564 C.2          1    LIG   0.0000
  17 S17         -3.4686     6.0376     2.0673 S.2          1    LIG   0.0000
  18 N18         -1.1254     4.8289     2.1172 N.pl3        1    LIG   0.0000
  19 C19         -0.5102     5.7726     3.0604 C.3          1    LIG   0.0000
  20 N20         -0.7307     5.3052     4.4337 N.3          1    LIG   0.0000
  21 C21         -0.0966     3.9789     4.6244 C.3          1    LIG   0.0000
  22 C22         -1.0461     2.9140     5.1720 C.3          1    LIG   0.0000
  23 N23         -1.7872     3.5374     6.2838 N.pl3        1    LIG   0.0000
  24 C24         -2.0327     3.1166     7.5638 C.2          1    LIG   0.0000
  25 N25         -2.7109     4.0591     8.1918 N.2          1    LIG   1.0000
  26 C26         -2.9220     5.1020     7.3341 C.2          1    LIG   0.0000
  27 C27         -2.3403     4.7547     6.1490 C.2          1    LIG   0.0000
  28 C28         -2.1500     5.4377     4.8017 C.3          1    LIG   0.0000
  29 N29         -0.5402     3.7863     1.5816 N.2          1    LIG   0.0000
  30 C30         -1.3991     3.1842     0.7909 C.2          1    LIG   0.0000
  31 C31         -0.0122    -0.0130    -0.0008 C.ar         1    LIG   0.0000
  32 C32          1.2044    -0.6870    -0.0161 C.ar         1    LIG   0.0000
  33 H           -3.0203     4.0168     9.1418 H            1    LIG   0.0000
  34 H            3.5525    -1.6989    -0.0421 H            1    LIG   0.0000
  35 H            4.2367    -0.4599    -0.8565 H            1    LIG   0.0000
  36 H            4.2509    -0.4705     0.7764 H            1    LIG   0.0000
  37 H            3.2532     1.9298    -0.0157 H            1    LIG   0.0000
  38 H            1.1584     3.0946     0.0090 H            1    LIG   0.0000
  39 H           -4.4707     0.9978    -2.0728 H            1    LIG   0.0000
  40 H           -6.5650     2.1429    -2.0662 H            1    LIG   0.0000
  41 H           -6.8239     4.1105    -0.7063 H            1    LIG   0.0000
  42 H           -4.9914     4.8736     0.6032 H            1    LIG   0.0000
  43 H           -0.9235     6.6759     2.9454 H            1    LIG   0.0000
  44 H            0.4720     5.8301     2.8816 H            1    LIG   0.0000
  45 H            0.6642     4.0825     5.2651 H            1    LIG   0.0000
  46 H            0.2520     3.6662     3.7408 H            1    LIG   0.0000
  47 H           -1.6807     2.6182     4.4580 H            1    LIG   0.0000
  48 H           -0.5264     2.1264     5.5031 H            1    LIG   0.0000
  49 H           -1.7465     2.2426     7.9565 H            1    LIG   0.0000
  50 H           -3.4075     5.9528     7.5353 H            1    LIG   0.0000
  51 H           -2.7241     4.9971     4.1116 H            1    LIG   0.0000
  52 H           -2.3956     6.4046     4.8716 H            1    LIG   0.0000
  53 H           -0.8729    -0.5220     0.0030 H            1    LIG   0.0000
  54 H            1.2219    -1.6868    -0.0238 H            1    LIG   0.0000
@<TRIPOS>BOND
   1        1        2 1
   2        2        3 ar
   3        3        4 ar
   4        4        5 ar
   5        5        6 1
   6        6        7 1
   7        7        8 2
   8        7        9 1
   9        9       10 ar
  10       10       11 ar
  11       11       12 ar
  12       12       13 ar
  13       13       14 ar
  14       14        9 ar
  15       14       15 1
  16       15       16 1
  17       16       17 2
  18       16       18 1
  19       18       19 1
  20       19       20 1
  21       20       21 1
  22       21       22 1
  23       22       23 1
  24       23       24 1
  25       24       25 2
  26       25       26 1
  27       26       27 2
  28       27       23 1
  29       27       28 1
  30       28       20 1
  31       18       29 1
  32       29       30 2
  33       30        6 1
  34       30       15 1
  35        5       31 ar
  36       31       32 ar
  37       32        2 ar
  38       25       33 1
  39        1       34 1
  40        1       35 1
  41        1       36 1
  42        3       37 1
  43        4       38 1
  44       10       39 1
  45       11       40 1
  46       12       41 1
  47       13       42 1
  48       19       43 1
  49       19       44 1
  50       21       45 1
  51       21       46 1
  52       22       47 1
  53       22       48 1
  54       24       49 1
  55       26       50 1
  56       28       51 1
  57       28       52 1
  58       31       53 1
  59       32       54 1

@<TRIPOS>MOLECULE

  54   59
SMALL
USER_CHARGES
@<TRIPOS>ATOM
   1 C1           3.7226    -0.7135    -0.0371 C.3          1    LIG   0.0000
   2 C2           2.3965     0.0295    -0.0208 C.ar         1    LIG   0.0000
   3 C3           2.3924     1.4208    -0.0117 C.ar         1    LIG   0.0000
   4 C4           1.1760     2.0948     0.0029 C.ar         1    LIG   0.0000
   5 C5          -0.0165     1.3779     0.0092 C.ar         1    LIG   0.0000
   6 N6          -1.2403     2.0625     0.0249 N.pl3        1    LIG   0.0000
   7 C7          -2.2656     1.5815    -0.7461 C.2          1    LIG   0.0000
   8 O8          -2.0769     0.5753    -1.4171 O.2          1    LIG   0.0000
   9 C9          -3.5113     2.2643    -0.7417 C.ar         1    LIG   0.0000
  10 C10         -4.5827     1.8159    -1.5088 C.ar         1    LIG   0.0000
  11 C11         -5.8054     2.4787    -1.5093 C.ar         1    LIG   0.0000
  12 C12         -5.9550     3.6159    -0.7230 C.ar         1    LIG   0.0000
  13 C13         -4.8782     4.0553     0.0397 C.ar         1    LIG   0.0000
  14 C14         -3.6472     3.4007     0.0502 C.ar         1    LIG   0.0000
  15 N15         -2.5845     3.8424     0.8056 N.pl3        1    LIG   0.0000
  16 C16         -2.4028     4.8995     1.6564 C.2          1    LIG   0.0000
  17 S17         -3.4686     6.0376     2.0673 S.2          1    LIG   0.0000
  18 N18         -1.1254     4.8289     2.1172 N.pl3        1    LIG   0.0000
  19 C19         -0.5102     5.7726     3.0604 C.3          1    LIG   0.0000
  20 N20         -0.7307     5.3052     4.4337 N.3          1    LIG   0.0000
  21 C21         -0.5919     6.4367     5.3813 C.3          1    LIG   0.0000
  22 C22          0.4001     6.1747     6.5140 C.3          1    LIG   0.0000
  23 N23          0.1120     4.8224     7.0261 N.pl3        1    LIG   0.0000
  24 C24         -0.0721     4.3506     8.2986 C.2          1    LIG   0.0000
  25 N25         -0.3516     3.0621     8.2314 N.2          1    LIG   1.0000
  26 C26         -0.3488     2.6740     6.9210 C.2          1    LIG   0.0000
  27 C27         -0.0546     3.7864     6.1865 C.2          1    LIG   0.0000
  28 C28          0.0646     4.0954     4.7004 C.3          1    LIG   0.0000
  29 N29         -0.5402     3.7863     1.5816 N.2          1    LIG   0.0000
  30 C30         -1.3991     3.1842     0.7909 C.2          1    LIG   0.0000
  31 C31         -0.0122    -0.0130    -0.0008 C.ar         1    LIG   0.0000
  32 C32          1.2044    -0.6870    -0.0161 C.ar         1    LIG   0.0000
  33 H           -0.5356     2.4663     9.0131 H            1    LIG   0.0000
  34 H            3.5525    -1.6989    -0.0421 H            1    LIG   0.0000
  35 H            4.2367    -0.4599    -0.8565 H            1    LIG   0.0000
  36 H            4.2509    -0.4705     0.7764 H            1    LIG   0.0000
  37 H            3.2532     1.9298    -0.0157 H            1    LIG   0.0000
  38 H            1.1584     3.0946     0.0090 H            1    LIG   0.0000
  39 H           -4.4707     0.9978    -2.0728 H            1    LIG   0.0000
  40 H           -6.5650     2.1429    -2.0662 H            1    LIG   0.0000
  41 H           -6.8239     4.1105    -0.7063 H            1    LIG   0.0000
  42 H           -4.9914     4.8736     0.6032 H            1    LIG   0.0000
  43 H           -0.9235     6.6759     2.9454 H            1    LIG   0.0000
  44 H            0.4720     5.8301     2.8816 H            1    LIG   0.0000
  45 H           -1.4882     6.6225     5.7839 H            1    LIG   0.0000
  46 H           -0.2829     7.2392     4.8709 H            1    LIG   0.0000
  47 H            1.3374     6.2198     6.1684 H            1    LIG   0.0000
  48 H            0.2798     6.8511     7.2406 H            1    LIG   0.0000
  49 H           -0.0061     4.8911     9.1373 H            1    LIG   0.0000
  50 H           -0.5273     1.7551     6.5691 H            1    LIG   0.0000
  51 H            1.0220     4.2568     4.4611 H            1    LIG   0.0000
  52 H           -0.2887     3.3294     4.1633 H            1    LIG   0.0000
  53 H           -0.8729    -0.5220     0.0030 H            1    LIG   0.0000
  54 H            1.2219    -1.6868    -0.0238 H            1    LIG   0.0000
@<TRIPOS>BOND
   1        1        2 1
   2        2        3 ar
   3        3        4 ar
   4        4        5 ar
   5        5        6 1
   6        6        7 1
   7        7        8 2
   8        7        9 1
   9        9       10 ar
  10       10       11 ar
  11       11       12 ar
  12       12       13 ar
  13       13       14 ar
  14       14        9 ar
  15       14       15 1
  16       15       16 1
  17       16       17 2
  18       16       18 1
  19       18       19 1
  20       19       20 1
  21       20       21 1
  22       21       22 1
  23       22       23 1
  24       23       24 1
  25       24       25 2
  26       25       26 1
  27       26       27 2
  28       27       23 1
  29       27       28 1
  30       28       20 1
  31       18       29 1
  32       29       30 2
  33       30        6 1
  34       30       15 1
  35        5       31 ar
  36       31       32 ar
  37       32        2 ar
  38       25       33 1
  39        1       34 1
  40        1       35 1
  41        1       36 1
  42        3       37 1
  43        4       38 1
  44       10       39 1
  45       11       40 1
  46       12       41 1
  47       13       42 1
  48       19       43 1
  49       19       44 1
  50       21       45 1
  51       21       46 1
  52       22       47 1
  53       22       48 1
  54       24       49 1
  55       26       50 1
  56       28       51 1
  57       28       52 1
  58       31       53 1
  59       32       54 1

@<TRIPOS>MOLECULE

  54   59
SMALL
USER_CHARGES
@<TRIPOS>ATOM
   1 C1           3.7226    -0.7135    -0.0371 C.3          1    LIG   0.0000
   2 C2           2.3965     0.0295    -0.0208 C.ar         1    LIG   0.0000
   3 C3           2.3924     1.4208    -0.0117 C.ar         1    LIG   0.0000
   4 C4           1.1760     2.0948     0.0029 C.ar         1    LIG   0.0000
   5 C5          -0.0165     1.3779     0.0092 C.ar         1    LIG   0.0000
   6 N6          -1.2403     2.0625     0.0249 N.pl3        1    LIG   0.0000
   7 C7          -1.3640     3.1932    -0.7390 C.2          1    LIG   0.0000
   8 O8          -0.4058     3.5623    -1.4051 O.2          1    LIG   0.0000
   9 C9          -2.5971     3.8984    -0.7331 C.ar         1    LIG   0.0000
  10 C10         -2.7719     5.0526    -1.4911 C.ar         1    LIG   0.0000
  11 C11         -3.9762     5.7481    -1.4909 C.ar         1    LIG   0.0000
  12 C12         -5.0270     5.2745    -0.7129 C.ar         1    LIG   0.0000
  13 C13         -4.8418     4.1203     0.0405 C.ar         1    LIG   0.0000
  14 C14         -3.6405     3.4129     0.0496 C.ar         1    LIG   0.0000
  15 N15         -3.4630     2.2722     0.7997 N.pl3        1    LIG   0.0000
  16 C16         -4.2677     1.5658     1.6526 C.2          1    LIG   0.0000
  17 S17         -5.7940     1.8806     2.0666 S.2          1    LIG   0.0000
  18 N18         -3.5401     0.5124     2.1111 N.pl3        1    LIG   0.0000
  19 C19         -4.0228    -0.5064     3.0531 C.3          1    LIG   0.0000
  20 N20         -3.7380    -0.0765     4.4268 N.3          1    LIG   0.0000
  21 C21         -3.7338    -1.2495     5.3331 C.3          1    LIG   0.0000
  22 C22         -4.6590    -1.0998     6.5404 C.3          1    LIG   0.0000
  23 N23         -4.4267     0.2492     7.0883 N.pl3        1    LIG   0.0000
  24 C24         -4.1855     0.6848     8.3641 C.2          1    LIG   0.0000
  25 N25         -3.9983     1.9912     8.3325 N.2          1    LIG   1.0000
  26 C26         -4.1192     2.4269     7.0428 C.2          1    LIG   0.0000
  27 C27         -4.3893     1.3249     6.2837 C.2          1    LIG   0.0000
  28 C28         -4.5918     1.0642     4.7974 C.3          1    LIG   0.0000
  29 N29         -2.3452     0.5597     1.5759 N.2          1    LIG   0.0000
  30 C30         -2.2802     1.6093     0.7887 C.2          1    LIG   0.0000
  31 C31         -0.0122    -0.0130    -0.0008 C.ar         1    LIG   0.0000
  32 C32          1.2044    -0.6870    -0.0161 C.ar         1    LIG   0.0000
  33 H           -3.8001     2.5688     9.1244 H            1    LIG   0.0000
  34 H            3.5525    -1.6989    -0.0421 H            1    LIG   0.0000
  35 H            4.2367    -0.4599    -0.8565 H            1    LIG   0.0000
  36 H            4.2509    -0.4705     0.7764 H            1    LIG   0.0000
  37 H            3.2532     1.9298    -0.0157 H            1    LIG   0.0000
  38 H            1.1584     3.0946     0.0090 H            1    LIG   0.0000
  39 H           -2.0135     5.3898    -2.0490 H            1    LIG   0.0000
  40 H           -4.0849     6.5758    -2.0416 H            1    LIG   0.0000
  41 H           -5.9029     5.7567    -0.6955 H            1    LIG   0.0000
  42 H           -5.6009     3.7843     0.5981 H            1    LIG   0.0000
  43 H           -3.5592    -1.3738     2.8725 H            1    LIG   0.0000
  44 H           -5.0091    -0.6255     2.9388 H            1    LIG   0.0000
  45 H           -2.8010    -1.3873     5.6660 H            1    LIG   0.0000
  46 H           -4.0236    -2.0520     4.8115 H            1    LIG   0.0000
  47 H           -5.6131    -1.1971     6.2574 H            1    LIG   0.0000
  48 H           -4.4429    -1.7929     7.2281 H            1    LIG   0.0000
  49 H           -4.1561     0.1100     9.1819 H            1    LIG   0.0000
  50 H           -4.0278     3.3685     6.7187 H            1    LIG   0.0000
  51 H           -5.5507     0.8456     4.6169 H            1    LIG   0.0000
  52 H           -4.3292     1.8724     4.2703 H            1    LIG   0.0000
  53 H           -0.8729    -0.5220     0.0030 H            1    LIG   0.0000
  54 H            1.2219    -1.6868    -0.0238 H            1    LIG   0.0000
@<TRIPOS>BOND
   1        1        2 1
   2        2        3 ar
   3        3        4 ar
   4        4        5 ar
   5        5        6 1
   6        6        7 1
   7        7        8 2
   8        7        9 1
   9        9       10 ar
  10       10       11 ar
  11       11       12 ar
  12       12       13 ar
  13       13       14 ar
  14       14        9 ar
  15       14       15 1
  16       15       16 1
  17       16       17 2
  18       16       18 1
  19       18       19 1
  20       19       20 1
  21       20       21 1
  22       21       22 1
  23       22       23 1
  24       23       24 1
  25       24       25 2
  26       25       26 1
  27       26       27 2
  28       27       23 1
  29       27       28 1
  30       28       20 1
  31       18       29 1
  32       29       30 2
  33       30        6 1
  34       30       15 1
  35        5       31 ar
  36       31       32 ar
  37       32        2 ar
  38       25       33 1
  39        1       34 1
  40        1       35 1
  41        1       36 1
  42        3       37 1
  43        4       38 1
  44       10       39 1
  45       11       40 1
  46       12       41 1
  47       13       42 1
  48       19       43 1
  49       19       44 1
  50       21       45 1
  51       21       46 1
  52       22       47 1
  53       22       48 1
  54       24       49 1
  55       26       50 1
  56       28       51 1
  57       28       52 1
  58       31       53 1
  59       32       54 1

