@<TRIPOS>MOLECULE
*****
 54 59 0 0 0
SMALL
USER_CHARGES

@<TRIPOS>ATOM
      1 C1          3.7226   -0.7135   -0.0371 C.3     1  LIG1        0.0000
      2 C2          2.3965    0.0295   -0.0208 C.3     1  LIG1        0.0000
      3 C3          2.3924    1.4208   -0.0117 C.3     1  LIG1        0.0000
      4 C4          1.1760    2.0948    0.0029 C.3     1  LIG1        0.0000
      5 C5         -0.0165    1.3779    0.0092 C.3     1  LIG1        0.0000
      6 N6         -1.2403    2.0625    0.0249 N.am    1  LIG1        0.0000
      7 C7         -2.2656    1.5815   -0.7461 C.2     1  LIG1        0.0000
      8 O8         -2.0769    0.5753   -1.4171 O.2     1  LIG1        0.0000
      9 C9         -3.5113    2.2643   -0.7417 C.3     1  LIG1        0.0000
     10 C10        -4.5827    1.8159   -1.5088 C.3     1  LIG1        0.0000
     11 C11        -5.8054    2.4787   -1.5093 C.3     1  LIG1        0.0000
     12 C12        -5.9550    3.6159   -0.7230 C.3     1  LIG1        0.0000
     13 C13        -4.8782    4.0553    0.0397 C.3     1  LIG1        0.0000
     14 C14        -3.6472    3.4007    0.0502 C.3     1  LIG1        0.0000
     15 N15        -2.5845    3.8424    0.8056 N.am    1  LIG1        0.0000
     16 C16        -2.4028    4.8995    1.6564 C.2     1  LIG1        0.0000
     17 S17        -3.4686    6.0376    2.0673 S.2     1  LIG1        0.0000
     18 N18        -1.1254    4.8289    2.1172 N.am    1  LIG1        0.0000
     19 C19        -0.5102    5.7726    3.0604 C.3     1  LIG1        0.0000
     20 N20        -0.7307    5.3052    4.4337 N.3     1  LIG1        0.0000
     21 C21        -0.5919    6.4367    5.3813 C.3     1  LIG1        0.0000
     22 C22         0.4001    6.1747    6.5140 C.3     1  LIG1        0.0000
     23 N23         0.1120    4.8224    7.0261 N.pl3   1  LIG1        0.0000
     24 C24        -0.0721    4.3506    8.2986 C.2     1  LIG1        0.0000
     25 N25        -0.3516    3.0621    8.2314 N.2     1  LIG1        1.0000
     26 C26        -0.3488    2.6740    6.9210 C.2     1  LIG1        0.0000
     27 C27        -0.0546    3.7864    6.1865 C.2     1  LIG1        0.0000
     28 C28         0.0646    4.0954    4.7004 C.3     1  LIG1        0.0000
     29 N29        -0.5402    3.7863    1.5816 N.2     1  LIG1        0.0000
     30 C30        -1.3991    3.1842    0.7909 C.2     1  LIG1        0.0000
     31 C31        -0.0122   -0.0130   -0.0008 C.3     1  LIG1        0.0000
     32 C32         1.2044   -0.6870   -0.0161 C.3     1  LIG1        0.0000
     33 H          -0.5356    2.4663    9.0131 H       1  LIG1        0.0000
     34 H           3.5525   -1.6989   -0.0421 H       1  LIG1        0.0000
     35 H           4.2367   -0.4599   -0.8565 H       1  LIG1        0.0000
     36 H           4.2509   -0.4705    0.7764 H       1  LIG1        0.0000
     37 H           3.2532    1.9298   -0.0157 H       1  LIG1        0.0000
     38 H           1.1584    3.0946    0.0090 H       1  LIG1        0.0000
     39 H          -4.4707    0.9978   -2.0728 H       1  LIG1        0.0000
     40 H          -6.5650    2.1429   -2.0662 H       1  LIG1        0.0000
     41 H          -6.8239    4.1105   -0.7063 H       1  LIG1        0.0000
     42 H          -4.9914    4.8736    0.6032 H       1  LIG1        0.0000
     43 H          -0.9235    6.6759    2.9454 H       1  LIG1        0.0000
     44 H           0.4720    5.8301    2.8816 H       1  LIG1        0.0000
     45 H          -1.4882    6.6225    5.7839 H       1  LIG1        0.0000
     46 H          -0.2829    7.2392    4.8709 H       1  LIG1        0.0000
     47 H           1.3374    6.2198    6.1684 H       1  LIG1        0.0000
     48 H           0.2798    6.8511    7.2406 H       1  LIG1        0.0000
     49 H          -0.0061    4.8911    9.1373 H       1  LIG1        0.0000
     50 H          -0.5273    1.7551    6.5691 H       1  LIG1        0.0000
     51 H           1.0220    4.2568    4.4611 H       1  LIG1        0.0000
     52 H          -0.2887    3.3294    4.1633 H       1  LIG1        0.0000
     53 H          -0.8729   -0.5220    0.0030 H       1  LIG1        0.0000
     54 H           1.2219   -1.6868   -0.0238 H       1  LIG1        0.0000
@<TRIPOS>BOND
     1     1     2    1
     2     2     3   ar
     3     3     4   ar
     4     4     5   ar
     5     5     6    1
     6     6     7   am
     7     7     8    2
     8     7     9    1
     9     9    10   ar
    10    10    11   ar
    11    11    12   ar
    12    12    13   ar
    13    13    14   ar
    14    14     9   ar
    15    14    15    1
    16    15    16    1
    17    16    17    2
    18    16    18    1
    19    18    19    1
    20    19    20    1
    21    20    21    1
    22    21    22    1
    23    22    23    1
    24    23    24    1
    25    24    25    2
    26    25    26    1
    27    26    27    2
    28    27    23    1
    29    27    28    1
    30    28    20    1
    31    18    29    1
    32    29    30    2
    33    30     6    1
    34    30    15    1
    35     5    31   ar
    36    31    32   ar
    37    32     2   ar
    38    25    33    1
    39     1    34    1
    40     1    35    1
    41     1    36    1
    42     3    37    1
    43     4    38    1
    44    10    39    1
    45    11    40    1
    46    12    41    1
    47    13    42    1
    48    19    43    1
    49    19    44    1
    50    21    45    1
    51    21    46    1
    52    22    47    1
    53    22    48    1
    54    24    49    1
    55    26    50    1
    56    28    51    1
    57    28    52    1
    58    31    53    1
    59    32    54    1
