@<TRIPOS>MOLECULE
*****
 54 59 0 0 0
SMALL
USER_CHARGES

@<TRIPOS>ATOM
      1 C1          3.7226   -0.7135   -0.0371 C.3     1  LIG1        0.0000
      2 C2          2.3965    0.0295   -0.0208 C.3     1  LIG1        0.0000
      3 C3          2.3924    1.4208   -0.0117 C.3     1  LIG1        0.0000
      4 C4          1.1760    2.0948    0.0029 C.3     1  LIG1        0.0000
      5 C5         -0.0165    1.3779    0.0092 C.3     1  LIG1        0.0000
      6 N6         -1.2403    2.0625    0.0249 N.am    1  LIG1        0.0000
      7 C7         -1.7992    2.3698    1.2375 C.2     1  LIG1        0.0000
      8 O8         -1.2118    2.0376    2.2586 O.2     1  LIG1        0.0000
      9 C9         -3.0391    3.0623    1.2701 C.3     1  LIG1        0.0000
     10 C10        -3.6477    3.3960    2.4767 C.3     1  LIG1        0.0000
     11 C11        -4.8612    4.0744    2.5166 C.3     1  LIG1        0.0000
     12 C12        -5.4763    4.4246    1.3198 C.3     1  LIG1        0.0000
     13 C13        -4.8597    4.0866    0.1200 C.3     1  LIG1        0.0000
     14 C14        -3.6434    3.4073    0.0648 C.3     1  LIG1        0.0000
     15 N15        -3.0395    3.0734   -1.1264 N.am    1  LIG1        0.0000
     16 C16        -3.3733    3.2586   -2.4411 C.2     1  LIG1        0.0000
     17 S17        -4.6808    3.9877   -3.0401 S.2     1  LIG1        0.0000
     18 N18        -2.3813    2.7054   -3.1889 N.am    1  LIG1        0.0000
     19 C19        -2.3380    2.6821   -4.6573 C.3     1  LIG1        0.0000
     20 N20        -1.6478    3.8853   -5.1467 N.3     1  LIG1        0.0000
     21 C21        -0.3780    4.0789   -4.4339 C.3     1  LIG1        0.0000
     22 C22         0.1378    5.4569   -4.8095 C.3     1  LIG1        0.0000
     23 N23         0.1579    5.6767   -6.2648 N.pl3   1  LIG1        0.0000
     24 C24         0.8511    6.6062   -6.9954 C.2     1  LIG1        0.0000
     25 N25         0.5319    6.4820   -8.2678 N.2     1  LIG1        1.0000
     26 C26        -0.3651    5.4546   -8.4008 C.2     1  LIG1        0.0000
     27 C27        -0.5731    4.9403   -7.1481 C.2     1  LIG1        0.0000
     28 C28        -1.3795    3.7751   -6.5906 C.3     1  LIG1        0.0000
     29 N29        -1.4785    2.2000   -2.3853 N.2     1  LIG1        0.0000
     30 C30        -1.8574    2.4094   -1.1451 C.2     1  LIG1        0.0000
     31 C31        -0.0122   -0.0130   -0.0008 C.3     1  LIG1        0.0000
     32 C32         1.2044   -0.6870   -0.0161 C.3     1  LIG1        0.0000
     33 H           0.8863    7.0452   -9.0143 H       1  LIG1        0.0000
     34 H           3.5525   -1.6989   -0.0421 H       1  LIG1        0.0000
     35 H           4.2367   -0.4599   -0.8565 H       1  LIG1        0.0000
     36 H           4.2509   -0.4705    0.7764 H       1  LIG1        0.0000
     37 H           3.2532    1.9298   -0.0157 H       1  LIG1        0.0000
     38 H           1.1584    3.0946    0.0090 H       1  LIG1        0.0000
     39 H          -3.2019    3.1420    3.3350 H       1  LIG1        0.0000
     40 H          -5.2846    4.3065    3.3923 H       1  LIG1        0.0000
     41 H          -6.3493    4.9125    1.3217 H       1  LIG1        0.0000
     42 H          -5.3066    4.3410   -0.7377 H       1  LIG1        0.0000
     43 H          -3.2705    2.6628   -5.0180 H       1  LIG1        0.0000
     44 H          -1.8453    1.8674   -4.9633 H       1  LIG1        0.0000
     45 H           0.2807    3.3789   -4.7098 H       1  LIG1        0.0000
     46 H          -0.5271    4.0256   -3.4465 H       1  LIG1        0.0000
     47 H          -0.4535    6.1455   -4.3897 H       1  LIG1        0.0000
     48 H           1.0684    5.5574   -4.4576 H       1  LIG1        0.0000
     49 H           1.4965    7.2726   -6.6223 H       1  LIG1        0.0000
     50 H          -0.7876    5.1400   -9.2508 H       1  LIG1        0.0000
     51 H          -2.2545    3.7358   -7.0732 H       1  LIG1        0.0000
     52 H          -0.8702    2.9303   -6.7546 H       1  LIG1        0.0000
     53 H          -0.8729   -0.5220    0.0030 H       1  LIG1        0.0000
     54 H           1.2219   -1.6868   -0.0238 H       1  LIG1        0.0000
@<TRIPOS>BOND
     1     1     2    1
     2     2     3   ar
     3     3     4   ar
     4     4     5   ar
     5     5     6    1
     6     6     7   am
     7     7     8    2
     8     7     9    1
     9     9    10   ar
    10    10    11   ar
    11    11    12   ar
    12    12    13   ar
    13    13    14   ar
    14    14     9   ar
    15    14    15    1
    16    15    16    1
    17    16    17    2
    18    16    18    1
    19    18    19    1
    20    19    20    1
    21    20    21    1
    22    21    22    1
    23    22    23    1
    24    23    24    1
    25    24    25    2
    26    25    26    1
    27    26    27    2
    28    27    23    1
    29    27    28    1
    30    28    20    1
    31    18    29    1
    32    29    30    2
    33    30     6    1
    34    30    15    1
    35     5    31   ar
    36    31    32   ar
    37    32     2   ar
    38    25    33    1
    39     1    34    1
    40     1    35    1
    41     1    36    1
    42     3    37    1
    43     4    38    1
    44    10    39    1
    45    11    40    1
    46    12    41    1
    47    13    42    1
    48    19    43    1
    49    19    44    1
    50    21    45    1
    51    21    46    1
    52    22    47    1
    53    22    48    1
    54    24    49    1
    55    26    50    1
    56    28    51    1
    57    28    52    1
    58    31    53    1
    59    32    54    1
