@<TRIPOS>MOLECULE
*****
 54 59 0 0 0
SMALL
USER_CHARGES

@<TRIPOS>ATOM
      1 C1          3.7226   -0.7135   -0.0371 C.3     1  LIG1        0.0000
      2 C2          2.3965    0.0295   -0.0208 C.3     1  LIG1        0.0000
      3 C3          2.3924    1.4208   -0.0117 C.3     1  LIG1        0.0000
      4 C4          1.1760    2.0948    0.0029 C.3     1  LIG1        0.0000
      5 C5         -0.0165    1.3779    0.0092 C.3     1  LIG1        0.0000
      6 N6         -1.2403    2.0625    0.0249 N.am    1  LIG1        0.0000
      7 C7         -1.3640    3.1932   -0.7390 C.2     1  LIG1        0.0000
      8 O8         -0.4058    3.5623   -1.4051 O.2     1  LIG1        0.0000
      9 C9         -2.5971    3.8984   -0.7331 C.3     1  LIG1        0.0000
     10 C10        -2.7719    5.0526   -1.4911 C.3     1  LIG1        0.0000
     11 C11        -3.9762    5.7481   -1.4909 C.3     1  LIG1        0.0000
     12 C12        -5.0270    5.2745   -0.7129 C.3     1  LIG1        0.0000
     13 C13        -4.8418    4.1203    0.0405 C.3     1  LIG1        0.0000
     14 C14        -3.6405    3.4129    0.0496 C.3     1  LIG1        0.0000
     15 N15        -3.4630    2.2722    0.7997 N.am    1  LIG1        0.0000
     16 C16        -4.2677    1.5658    1.6526 C.2     1  LIG1        0.0000
     17 S17        -5.7940    1.8806    2.0666 S.2     1  LIG1        0.0000
     18 N18        -3.5401    0.5124    2.1111 N.am    1  LIG1        0.0000
     19 C19        -4.0228   -0.5064    3.0531 C.3     1  LIG1        0.0000
     20 N20        -3.7380   -0.0765    4.4268 N.3     1  LIG1        0.0000
     21 C21        -3.7338   -1.2495    5.3331 C.3     1  LIG1        0.0000
     22 C22        -4.6590   -1.0998    6.5404 C.3     1  LIG1        0.0000
     23 N23        -4.4267    0.2492    7.0883 N.pl3   1  LIG1        0.0000
     24 C24        -4.1855    0.6848    8.3641 C.2     1  LIG1        0.0000
     25 N25        -3.9983    1.9912    8.3325 N.2     1  LIG1        1.0000
     26 C26        -4.1192    2.4269    7.0428 C.2     1  LIG1        0.0000
     27 C27        -4.3893    1.3249    6.2837 C.2     1  LIG1        0.0000
     28 C28        -4.5918    1.0642    4.7974 C.3     1  LIG1        0.0000
     29 N29        -2.3452    0.5597    1.5759 N.2     1  LIG1        0.0000
     30 C30        -2.2802    1.6093    0.7887 C.2     1  LIG1        0.0000
     31 C31        -0.0122   -0.0130   -0.0008 C.3     1  LIG1        0.0000
     32 C32         1.2044   -0.6870   -0.0161 C.3     1  LIG1        0.0000
     33 H          -3.8001    2.5688    9.1244 H       1  LIG1        0.0000
     34 H           3.5525   -1.6989   -0.0421 H       1  LIG1        0.0000
     35 H           4.2367   -0.4599   -0.8565 H       1  LIG1        0.0000
     36 H           4.2509   -0.4705    0.7764 H       1  LIG1        0.0000
     37 H           3.2532    1.9298   -0.0157 H       1  LIG1        0.0000
     38 H           1.1584    3.0946    0.0090 H       1  LIG1        0.0000
     39 H          -2.0135    5.3898   -2.0490 H       1  LIG1        0.0000
     40 H          -4.0849    6.5758   -2.0416 H       1  LIG1        0.0000
     41 H          -5.9029    5.7567   -0.6955 H       1  LIG1        0.0000
     42 H          -5.6009    3.7843    0.5981 H       1  LIG1        0.0000
     43 H          -3.5592   -1.3738    2.8725 H       1  LIG1        0.0000
     44 H          -5.0091   -0.6255    2.9388 H       1  LIG1        0.0000
     45 H          -2.8010   -1.3873    5.6660 H       1  LIG1        0.0000
     46 H          -4.0236   -2.0520    4.8115 H       1  LIG1        0.0000
     47 H          -5.6131   -1.1971    6.2574 H       1  LIG1        0.0000
     48 H          -4.4429   -1.7929    7.2281 H       1  LIG1        0.0000
     49 H          -4.1561    0.1100    9.1819 H       1  LIG1        0.0000
     50 H          -4.0278    3.3685    6.7187 H       1  LIG1        0.0000
     51 H          -5.5507    0.8456    4.6169 H       1  LIG1        0.0000
     52 H          -4.3292    1.8724    4.2703 H       1  LIG1        0.0000
     53 H          -0.8729   -0.5220    0.0030 H       1  LIG1        0.0000
     54 H           1.2219   -1.6868   -0.0238 H       1  LIG1        0.0000
@<TRIPOS>BOND
     1     1     2    1
     2     2     3   ar
     3     3     4   ar
     4     4     5   ar
     5     5     6    1
     6     6     7   am
     7     7     8    2
     8     7     9    1
     9     9    10   ar
    10    10    11   ar
    11    11    12   ar
    12    12    13   ar
    13    13    14   ar
    14    14     9   ar
    15    14    15    1
    16    15    16    1
    17    16    17    2
    18    16    18    1
    19    18    19    1
    20    19    20    1
    21    20    21    1
    22    21    22    1
    23    22    23    1
    24    23    24    1
    25    24    25    2
    26    25    26    1
    27    26    27    2
    28    27    23    1
    29    27    28    1
    30    28    20    1
    31    18    29    1
    32    29    30    2
    33    30     6    1
    34    30    15    1
    35     5    31   ar
    36    31    32   ar
    37    32     2   ar
    38    25    33    1
    39     1    34    1
    40     1    35    1
    41     1    36    1
    42     3    37    1
    43     4    38    1
    44    10    39    1
    45    11    40    1
    46    12    41    1
    47    13    42    1
    48    19    43    1
    49    19    44    1
    50    21    45    1
    51    21    46    1
    52    22    47    1
    53    22    48    1
    54    24    49    1
    55    26    50    1
    56    28    51    1
    57    28    52    1
    58    31    53    1
    59    32    54    1
