@<TRIPOS>MOLECULE

  59   61
SMALL
USER_CHARGES
@<TRIPOS>ATOM
   1 C1          -1.9920     2.5668    -5.6512 C.3          1    LIG   0.0000
   2 O2          -1.6637     2.2670    -4.3026 O.3          1    LIG   0.0000
   3 C3          -2.6384     1.4820    -3.6317 C.3          1    LIG   0.0000
   4 C4          -2.1855     1.2234    -2.2039 C.3          1    LIG   0.0000
   5 N5          -2.0208     2.5047    -1.5025 N.3          1    LIG   0.0000
   6 S6          -1.5352     2.2275     0.0286 S.o2         1    LIG   0.0000
   7 O7          -2.5236     1.4314     0.7090 O.2          1    LIG   0.0000
   8 O8          -1.3738     3.4826     0.7157 O.2          1    LIG   0.0000
   9 C9          -0.0173     1.3767     0.0106 C.ar         1    LIG   0.0000
  10 C10          1.1707     2.1003     0.0071 C.ar         1    LIG   0.0000
  11 C11          2.3816     1.4162    -0.0083 C.ar         1    LIG   0.0000
  12 C12          2.3947     0.0252    -0.0201 C.ar         1    LIG   0.0000
  13 C13          3.7226    -0.7135    -0.0371 C.3          1    LIG   0.0000
  14 N14          4.1395    -0.9400    -1.4285 N.am         1    LIG   0.0000
  15 C15          3.7570    -2.0823    -2.0809 C.2          1    LIG   0.0000
  16 O16          3.0816    -2.8980    -1.5166 O.2          1    LIG   0.0000
  17 C17          4.1679    -2.3055    -3.4520 C.2          1    LIG   0.0000
  18 S18          3.3219    -3.1796    -4.6437 S.3          1    LIG   0.0000
  19 C19          4.4742    -2.9383    -5.8728 C.2          1    LIG   0.0000
  20 C20          4.3632    -3.4528    -7.2243 C.ar         1    LIG   0.0000
  21 C21          5.3879    -3.1748    -8.1235 C.ar         1    LIG   0.0000
  22 C22          5.3160    -3.6508    -9.4285 C.ar         1    LIG   0.0000
  23 C23          4.2142    -4.4044    -9.8206 C.ar         1    LIG   0.0000
  24 C24          4.1276    -4.9290   -11.2446 C.3          1    LIG   0.0000
  25 C25          3.1862    -4.6871    -8.9268 C.ar         1    LIG   0.0000
  26 C26          3.2643    -4.2079    -7.6231 C.ar         1    LIG   0.0000
  27 C27          2.1300    -4.5287    -6.6632 C.3          1    LIG   0.0000
  28 N28          5.4488    -2.2194    -5.3712 N.2          1    LIG   0.0000
  29 C29          5.3039    -1.8651    -4.0592 C.2          1    LIG   0.0000
  30 C30          6.3041    -1.0353    -3.2811 C.3          1    LIG   0.0000
  31 C31          1.2021    -0.6899    -0.0165 C.ar         1    LIG   0.0000
  32 C32         -0.0139    -0.0147    -0.0012 C.ar         1    LIG   0.0000
  33 H           -1.2636     3.1191    -6.0567 H            1    LIG   0.0000
  34 H           -2.0916     1.7160    -6.1670 H            1    LIG   0.0000
  35 H           -2.8519     3.0765    -5.6795 H            1    LIG   0.0000
  36 H           -2.7504     0.6104    -4.1089 H            1    LIG   0.0000
  37 H           -3.5107     1.9709    -3.6213 H            1    LIG   0.0000
  38 H           -2.8719     0.6706    -1.7315 H            1    LIG   0.0000
  39 H           -1.3132     0.7345    -2.2143 H            1    LIG   0.0000
  40 H           -1.3344     3.0576    -1.9749 H            1    LIG   0.0000
  41 H            1.1544     3.1001     0.0154 H            1    LIG   0.0000
  42 H            3.2429     1.9243    -0.0108 H            1    LIG   0.0000
  43 H            4.4146    -0.1660     0.4333 H            1    LIG   0.0000
  44 H            3.6207    -1.5930     0.4277 H            1    LIG   0.0000
  45 H            4.7024    -0.2602    -1.8987 H            1    LIG   0.0000
  46 H            6.1760    -2.6327    -7.8316 H            1    LIG   0.0000
  47 H            6.0495    -3.4532   -10.0789 H            1    LIG   0.0000
  48 H            4.9378    -4.6416   -11.7556 H            1    LIG   0.0000
  49 H            4.0800    -5.9278   -11.2296 H            1    LIG   0.0000
  50 H            3.3082    -4.5629   -11.6855 H            1    LIG   0.0000
  51 H            2.3986    -5.2297    -9.2187 H            1    LIG   0.0000
  52 H            1.4394    -5.0771    -7.1347 H            1    LIG   0.0000
  53 H            2.4883    -5.0423    -5.8836 H            1    LIG   0.0000
  54 H            1.7162    -3.6777    -6.3399 H            1    LIG   0.0000
  55 H            5.9766    -0.9103    -2.3446 H            1    LIG   0.0000
  56 H            7.1867    -1.5052    -3.2657 H            1    LIG   0.0000
  57 H            6.4093    -0.1427    -3.7194 H            1    LIG   0.0000
  58 H            1.2186    -1.6897    -0.0248 H            1    LIG   0.0000
  59 H           -0.8751    -0.5230     0.0012 H            1    LIG   0.0000
@<TRIPOS>BOND
   1        1        2 1
   2        2        3 1
   3        3        4 1
   4        4        5 1
   5        5        6 1
   6        6        7 2
   7        6        8 2
   8        6        9 1
   9        9       10 ar
  10       10       11 ar
  11       11       12 ar
  12       12       13 1
  13       13       14 1
  14       14       15 am
  15       15       16 2
  16       15       17 1
  17       17       18 1
  18       18       19 1
  19       19       20 1
  20       20       21 ar
  21       21       22 ar
  22       22       23 ar
  23       23       24 1
  24       23       25 ar
  25       25       26 ar
  26       26       20 ar
  27       26       27 1
  28       19       28 2
  29       28       29 1
  30       29       17 2
  31       29       30 1
  32       12       31 ar
  33       31       32 ar
  34       32        9 ar
  35        1       33 1
  36        1       34 1
  37        1       35 1
  38        3       36 1
  39        3       37 1
  40        4       38 1
  41        4       39 1
  42        5       40 1
  43       10       41 1
  44       11       42 1
  45       13       43 1
  46       13       44 1
  47       14       45 1
  48       21       46 1
  49       22       47 1
  50       24       48 1
  51       24       49 1
  52       24       50 1
  53       25       51 1
  54       27       52 1
  55       27       53 1
  56       27       54 1
  57       30       55 1
  58       30       56 1
  59       30       57 1
  60       31       58 1
  61       32       59 1

@<TRIPOS>MOLECULE

  59   61
SMALL
USER_CHARGES
@<TRIPOS>ATOM
   1 C1          -1.9920     2.5668    -5.6512 C.3          1    LIG   0.0000
   2 O2          -1.6637     2.2670    -4.3026 O.3          1    LIG   0.0000
   3 C3          -2.6384     1.4820    -3.6317 C.3          1    LIG   0.0000
   4 C4          -2.1855     1.2234    -2.2039 C.3          1    LIG   0.0000
   5 N5          -2.0208     2.5047    -1.5025 N.3          1    LIG   0.0000
   6 S6          -1.5352     2.2275     0.0286 S.o2         1    LIG   0.0000
   7 O7          -2.5236     1.4314     0.7090 O.2          1    LIG   0.0000
   8 O8          -1.3738     3.4826     0.7157 O.2          1    LIG   0.0000
   9 C9          -0.0173     1.3767     0.0106 C.ar         1    LIG   0.0000
  10 C10          1.1707     2.1003     0.0071 C.ar         1    LIG   0.0000
  11 C11          2.3816     1.4162    -0.0083 C.ar         1    LIG   0.0000
  12 C12          2.3947     0.0252    -0.0201 C.ar         1    LIG   0.0000
  13 C13          3.7226    -0.7135    -0.0371 C.3          1    LIG   0.0000
  14 N14          4.1395    -0.9400    -1.4285 N.am         1    LIG   0.0000
  15 C15          4.3247    -2.2169    -1.8889 C.2          1    LIG   0.0000
  16 O16          4.1320    -2.4715    -3.0456 O.2          1    LIG   0.0000
  17 C17          4.7529    -3.2599    -0.9793 C.2          1    LIG   0.0000
  18 S18          4.3876    -4.9200    -1.0821 S.3          1    LIG   0.0000
  19 C19          5.2504    -5.3645     0.3159 C.2          1    LIG   0.0000
  20 C20          5.3537    -6.7168     0.8300 C.ar         1    LIG   0.0000
  21 C21          5.2870    -6.9072     2.2067 C.ar         1    LIG   0.0000
  22 C22          5.3829    -8.1898     2.7367 C.ar         1    LIG   0.0000
  23 C23          5.5444    -9.2727     1.8784 C.ar         1    LIG   0.0000
  24 C24          5.6497   -10.6778     2.4489 C.3          1    LIG   0.0000
  25 C25          5.6111    -9.0901     0.5009 C.ar         1    LIG   0.0000
  26 C26          5.5146    -7.8049    -0.0226 C.ar         1    LIG   0.0000
  27 C27          5.5899    -7.6283    -1.5307 C.3          1    LIG   0.0000
  28 N28          5.7845    -4.2780     0.8181 N.2          1    LIG   0.0000
  29 C29          5.5273    -3.1243     0.1320 C.2          1    LIG   0.0000
  30 C30          6.0456    -1.7579     0.5301 C.3          1    LIG   0.0000
  31 C31          1.2021    -0.6899    -0.0165 C.ar         1    LIG   0.0000
  32 C32         -0.0139    -0.0147    -0.0012 C.ar         1    LIG   0.0000
  33 H           -1.2636     3.1191    -6.0567 H            1    LIG   0.0000
  34 H           -2.0916     1.7160    -6.1670 H            1    LIG   0.0000
  35 H           -2.8519     3.0765    -5.6795 H            1    LIG   0.0000
  36 H           -2.7504     0.6104    -4.1089 H            1    LIG   0.0000
  37 H           -3.5107     1.9709    -3.6213 H            1    LIG   0.0000
  38 H           -2.8719     0.6706    -1.7315 H            1    LIG   0.0000
  39 H           -1.3132     0.7345    -2.2143 H            1    LIG   0.0000
  40 H           -1.3344     3.0576    -1.9749 H            1    LIG   0.0000
  41 H            1.1544     3.1001     0.0154 H            1    LIG   0.0000
  42 H            3.2429     1.9243    -0.0108 H            1    LIG   0.0000
  43 H            4.4146    -0.1660     0.4333 H            1    LIG   0.0000
  44 H            3.6207    -1.5930     0.4277 H            1    LIG   0.0000
  45 H            4.2881    -0.1619    -2.0389 H            1    LIG   0.0000
  46 H            5.1701    -6.1222     2.8150 H            1    LIG   0.0000
  47 H            5.3363    -8.3320     3.7254 H            1    LIG   0.0000
  48 H            5.5843   -10.6385     3.4460 H            1    LIG   0.0000
  49 H            4.9061   -11.2407     2.0880 H            1    LIG   0.0000
  50 H            6.5279   -11.0786     2.1880 H            1    LIG   0.0000
  51 H            5.7274    -9.8754    -0.1073 H            1    LIG   0.0000
  52 H            5.7056    -8.5213    -1.9655 H            1    LIG   0.0000
  53 H            4.7458    -7.2045    -1.8592 H            1    LIG   0.0000
  54 H            6.3677    -7.0429    -1.7593 H            1    LIG   0.0000
  55 H            5.7236    -1.0751    -0.1257 H            1    LIG   0.0000
  56 H            5.7100    -1.5271     1.4434 H            1    LIG   0.0000
  57 H            7.0456    -1.7693     0.5355 H            1    LIG   0.0000
  58 H            1.2186    -1.6897    -0.0248 H            1    LIG   0.0000
  59 H           -0.8751    -0.5230     0.0012 H            1    LIG   0.0000
@<TRIPOS>BOND
   1        1        2 1
   2        2        3 1
   3        3        4 1
   4        4        5 1
   5        5        6 1
   6        6        7 2
   7        6        8 2
   8        6        9 1
   9        9       10 ar
  10       10       11 ar
  11       11       12 ar
  12       12       13 1
  13       13       14 1
  14       14       15 am
  15       15       16 2
  16       15       17 1
  17       17       18 1
  18       18       19 1
  19       19       20 1
  20       20       21 ar
  21       21       22 ar
  22       22       23 ar
  23       23       24 1
  24       23       25 ar
  25       25       26 ar
  26       26       20 ar
  27       26       27 1
  28       19       28 2
  29       28       29 1
  30       29       17 2
  31       29       30 1
  32       12       31 ar
  33       31       32 ar
  34       32        9 ar
  35        1       33 1
  36        1       34 1
  37        1       35 1
  38        3       36 1
  39        3       37 1
  40        4       38 1
  41        4       39 1
  42        5       40 1
  43       10       41 1
  44       11       42 1
  45       13       43 1
  46       13       44 1
  47       14       45 1
  48       21       46 1
  49       22       47 1
  50       24       48 1
  51       24       49 1
  52       24       50 1
  53       25       51 1
  54       27       52 1
  55       27       53 1
  56       27       54 1
  57       30       55 1
  58       30       56 1
  59       30       57 1
  60       31       58 1
  61       32       59 1

@<TRIPOS>MOLECULE

  59   61
SMALL
USER_CHARGES
@<TRIPOS>ATOM
   1 C1          -1.9920     2.5668    -5.6512 C.3          1    LIG   0.0000
   2 O2          -1.6637     2.2670    -4.3026 O.3          1    LIG   0.0000
   3 C3          -2.6384     1.4820    -3.6317 C.3          1    LIG   0.0000
   4 C4          -2.1855     1.2234    -2.2039 C.3          1    LIG   0.0000
   5 N5          -2.0208     2.5047    -1.5025 N.3          1    LIG   0.0000
   6 S6          -1.5352     2.2275     0.0286 S.o2         1    LIG   0.0000
   7 O7          -2.5236     1.4314     0.7090 O.2          1    LIG   0.0000
   8 O8          -1.3738     3.4826     0.7157 O.2          1    LIG   0.0000
   9 C9          -0.0173     1.3767     0.0106 C.ar         1    LIG   0.0000
  10 C10          1.1707     2.1003     0.0071 C.ar         1    LIG   0.0000
  11 C11          2.3816     1.4162    -0.0083 C.ar         1    LIG   0.0000
  12 C12          2.3947     0.0252    -0.0201 C.ar         1    LIG   0.0000
  13 C13          3.7226    -0.7135    -0.0371 C.3          1    LIG   0.0000
  14 N14          4.1395    -0.9400    -1.4285 N.am         1    LIG   0.0000
  15 C15          5.3145    -1.5926    -1.6938 C.2          1    LIG   0.0000
  16 O16          5.8200    -2.2839    -0.8532 O.2          1    LIG   0.0000
  17 C17          5.9467    -1.4481    -2.9892 C.2          1    LIG   0.0000
  18 S18          7.6138    -1.5263    -3.3280 S.3          1    LIG   0.0000
  19 C19          7.4534    -1.2627    -5.0017 C.2          1    LIG   0.0000
  20 C20          8.5577    -1.2055    -5.9403 C.ar         1    LIG   0.0000
  21 C21          8.2722    -0.9810    -7.2835 C.ar         1    LIG   0.0000
  22 C22          9.3052    -0.9204    -8.2132 C.ar         1    LIG   0.0000
  23 C23         10.6188    -1.0851    -7.7857 C.ar         1    LIG   0.0000
  24 C24         11.7539    -1.0199    -8.7947 C.3          1    LIG   0.0000
  25 C25         10.9119    -1.3091    -6.4442 C.ar         1    LIG   0.0000
  26 C26          9.8741    -1.3686    -5.5197 C.ar         1    LIG   0.0000
  27 C27         10.2170    -1.6143    -4.0592 C.3          1    LIG   0.0000
  28 N28          6.1764    -1.1261    -5.2641 N.2          1    LIG   0.0000
  29 C29          5.3406    -1.2226    -4.1871 C.2          1    LIG   0.0000
  30 C30          3.8326    -1.1003    -4.2601 C.3          1    LIG   0.0000
  31 C31          1.2021    -0.6899    -0.0165 C.ar         1    LIG   0.0000
  32 C32         -0.0139    -0.0147    -0.0012 C.ar         1    LIG   0.0000
  33 H           -1.2636     3.1191    -6.0567 H            1    LIG   0.0000
  34 H           -2.0916     1.7160    -6.1670 H            1    LIG   0.0000
  35 H           -2.8519     3.0765    -5.6795 H            1    LIG   0.0000
  36 H           -2.7504     0.6104    -4.1089 H            1    LIG   0.0000
  37 H           -3.5107     1.9709    -3.6213 H            1    LIG   0.0000
  38 H           -2.8719     0.6706    -1.7315 H            1    LIG   0.0000
  39 H           -1.3132     0.7345    -2.2143 H            1    LIG   0.0000
  40 H           -1.3344     3.0576    -1.9749 H            1    LIG   0.0000
  41 H            1.1544     3.1001     0.0154 H            1    LIG   0.0000
  42 H            3.2429     1.9243    -0.0108 H            1    LIG   0.0000
  43 H            4.4146    -0.1660     0.4333 H            1    LIG   0.0000
  44 H            3.6207    -1.5930     0.4277 H            1    LIG   0.0000
  45 H            3.5656    -0.6176    -2.1812 H            1    LIG   0.0000
  46 H            7.3246    -0.8632    -7.5804 H            1    LIG   0.0000
  47 H            9.1054    -0.7600    -9.1798 H            1    LIG   0.0000
  48 H           11.3797    -0.8543    -9.7071 H            1    LIG   0.0000
  49 H           12.3757    -0.2762    -8.5493 H            1    LIG   0.0000
  50 H           12.2530    -1.8865    -8.7914 H            1    LIG   0.0000
  51 H           11.8596    -1.4262    -6.1474 H            1    LIG   0.0000
  52 H           11.2080    -1.7044    -3.9600 H            1    LIG   0.0000
  53 H            9.8954    -0.8449    -3.5073 H            1    LIG   0.0000
  54 H            9.7732    -2.4552    -3.7495 H            1    LIG   0.0000
  55 H            3.4448    -1.2062    -3.3445 H            1    LIG   0.0000
  56 H            3.5883    -0.2014    -4.6237 H            1    LIG   0.0000
  57 H            3.4691    -1.8127    -4.8605 H            1    LIG   0.0000
  58 H            1.2186    -1.6897    -0.0248 H            1    LIG   0.0000
  59 H           -0.8751    -0.5230     0.0012 H            1    LIG   0.0000
@<TRIPOS>BOND
   1        1        2 1
   2        2        3 1
   3        3        4 1
   4        4        5 1
   5        5        6 1
   6        6        7 2
   7        6        8 2
   8        6        9 1
   9        9       10 ar
  10       10       11 ar
  11       11       12 ar
  12       12       13 1
  13       13       14 1
  14       14       15 am
  15       15       16 2
  16       15       17 1
  17       17       18 1
  18       18       19 1
  19       19       20 1
  20       20       21 ar
  21       21       22 ar
  22       22       23 ar
  23       23       24 1
  24       23       25 ar
  25       25       26 ar
  26       26       20 ar
  27       26       27 1
  28       19       28 2
  29       28       29 1
  30       29       17 2
  31       29       30 1
  32       12       31 ar
  33       31       32 ar
  34       32        9 ar
  35        1       33 1
  36        1       34 1
  37        1       35 1
  38        3       36 1
  39        3       37 1
  40        4       38 1
  41        4       39 1
  42        5       40 1
  43       10       41 1
  44       11       42 1
  45       13       43 1
  46       13       44 1
  47       14       45 1
  48       21       46 1
  49       22       47 1
  50       24       48 1
  51       24       49 1
  52       24       50 1
  53       25       51 1
  54       27       52 1
  55       27       53 1
  56       27       54 1
  57       30       55 1
  58       30       56 1
  59       30       57 1
  60       31       58 1
  61       32       59 1

@<TRIPOS>MOLECULE

  59   61
SMALL
USER_CHARGES
@<TRIPOS>ATOM
   1 C1          -1.9920     2.5668    -5.6512 C.3          1    LIG   0.0000
   2 O2          -1.6637     2.2670    -4.3026 O.3          1    LIG   0.0000
   3 C3          -2.6384     1.4820    -3.6317 C.3          1    LIG   0.0000
   4 C4          -2.1855     1.2234    -2.2039 C.3          1    LIG   0.0000
   5 N5          -2.0208     2.5047    -1.5025 N.3          1    LIG   0.0000
   6 S6          -1.5352     2.2275     0.0286 S.o2         1    LIG   0.0000
   7 O7          -2.5236     1.4314     0.7090 O.2          1    LIG   0.0000
   8 O8          -1.3738     3.4826     0.7157 O.2          1    LIG   0.0000
   9 C9          -0.0173     1.3767     0.0106 C.ar         1    LIG   0.0000
  10 C10          1.1707     2.1003     0.0071 C.ar         1    LIG   0.0000
  11 C11          2.3816     1.4162    -0.0083 C.ar         1    LIG   0.0000
  12 C12          2.3947     0.0252    -0.0201 C.ar         1    LIG   0.0000
  13 C13          3.7226    -0.7135    -0.0371 C.3          1    LIG   0.0000
  14 N14          4.8245     0.2594    -0.0378 N.am         1    LIG   0.0000
  15 C15          5.3284     0.7228    -1.2245 C.2          1    LIG   0.0000
  16 O16          4.6760     0.6366    -2.2279 O.2          1    LIG   0.0000
  17 C17          6.6489     1.3169    -1.2680 C.2          1    LIG   0.0000
  18 S18          7.2656     2.3518    -2.4717 S.3          1    LIG   0.0000
  19 C19          8.7959     2.5459    -1.7526 C.2          1    LIG   0.0000
  20 C20          9.8705     3.3529    -2.2981 C.ar         1    LIG   0.0000
  21 C21         10.6384     4.1114    -1.4200 C.ar         1    LIG   0.0000
  22 C22         11.6772     4.8983    -1.9064 C.ar         1    LIG   0.0000
  23 C23         11.9377     4.9165    -3.2729 C.ar         1    LIG   0.0000
  24 C24         13.0713     5.7731    -3.8131 C.3          1    LIG   0.0000
  25 C25         11.1747     4.1601    -4.1568 C.ar         1    LIG   0.0000
  26 C26         10.1372     3.3754    -3.6638 C.ar         1    LIG   0.0000
  27 C27          9.3163     2.5568    -4.6472 C.3          1    LIG   0.0000
  28 N28          8.8090     1.8443    -0.6455 N.2          1    LIG   0.0000
  29 C29          7.6549     1.1689    -0.3630 C.2          1    LIG   0.0000
  30 C30          7.4482     0.3024     0.8621 C.3          1    LIG   0.0000
  31 C31          1.2021    -0.6899    -0.0165 C.ar         1    LIG   0.0000
  32 C32         -0.0139    -0.0147    -0.0012 C.ar         1    LIG   0.0000
  33 H           -1.2636     3.1191    -6.0567 H            1    LIG   0.0000
  34 H           -2.0916     1.7160    -6.1670 H            1    LIG   0.0000
  35 H           -2.8519     3.0765    -5.6795 H            1    LIG   0.0000
  36 H           -2.7504     0.6104    -4.1089 H            1    LIG   0.0000
  37 H           -3.5107     1.9709    -3.6213 H            1    LIG   0.0000
  38 H           -2.8719     0.6706    -1.7315 H            1    LIG   0.0000
  39 H           -1.3132     0.7345    -2.2143 H            1    LIG   0.0000
  40 H           -1.3344     3.0576    -1.9749 H            1    LIG   0.0000
  41 H            1.1544     3.1001     0.0154 H            1    LIG   0.0000
  42 H            3.2429     1.9243    -0.0108 H            1    LIG   0.0000
  43 H            3.7913    -1.2944     0.7739 H            1    LIG   0.0000
  44 H            3.7781    -1.2806    -0.8589 H            1    LIG   0.0000
  45 H            5.2064     0.5830     0.8279 H            1    LIG   0.0000
  46 H           10.4435     4.0908    -0.4394 H            1    LIG   0.0000
  47 H           12.2317     5.4458    -1.2796 H            1    LIG   0.0000
  48 H           13.5181     6.2505    -3.0565 H            1    LIG   0.0000
  49 H           13.7370     5.1901    -4.2789 H            1    LIG   0.0000
  50 H           12.7046     6.4424    -4.4594 H            1    LIG   0.0000
  51 H           11.3702     4.1803    -5.1373 H            1    LIG   0.0000
  52 H            9.6604     2.7064    -5.5742 H            1    LIG   0.0000
  53 H            9.3903     1.5866    -4.4167 H            1    LIG   0.0000
  54 H            8.3582     2.8391    -4.5977 H            1    LIG   0.0000
  55 H            6.5258    -0.0836     0.8456 H            1    LIG   0.0000
  56 H            8.1197    -0.4387     0.8634 H            1    LIG   0.0000
  57 H            7.5626     0.8573     1.6861 H            1    LIG   0.0000
  58 H            1.2186    -1.6897    -0.0248 H            1    LIG   0.0000
  59 H           -0.8751    -0.5230     0.0012 H            1    LIG   0.0000
@<TRIPOS>BOND
   1        1        2 1
   2        2        3 1
   3        3        4 1
   4        4        5 1
   5        5        6 1
   6        6        7 2
   7        6        8 2
   8        6        9 1
   9        9       10 ar
  10       10       11 ar
  11       11       12 ar
  12       12       13 1
  13       13       14 1
  14       14       15 am
  15       15       16 2
  16       15       17 1
  17       17       18 1
  18       18       19 1
  19       19       20 1
  20       20       21 ar
  21       21       22 ar
  22       22       23 ar
  23       23       24 1
  24       23       25 ar
  25       25       26 ar
  26       26       20 ar
  27       26       27 1
  28       19       28 2
  29       28       29 1
  30       29       17 2
  31       29       30 1
  32       12       31 ar
  33       31       32 ar
  34       32        9 ar
  35        1       33 1
  36        1       34 1
  37        1       35 1
  38        3       36 1
  39        3       37 1
  40        4       38 1
  41        4       39 1
  42        5       40 1
  43       10       41 1
  44       11       42 1
  45       13       43 1
  46       13       44 1
  47       14       45 1
  48       21       46 1
  49       22       47 1
  50       24       48 1
  51       24       49 1
  52       24       50 1
  53       25       51 1
  54       27       52 1
  55       27       53 1
  56       27       54 1
  57       30       55 1
  58       30       56 1
  59       30       57 1
  60       31       58 1
  61       32       59 1

@<TRIPOS>MOLECULE

  59   61
SMALL
USER_CHARGES
@<TRIPOS>ATOM
   1 C1          -1.9920     2.5668    -5.6512 C.3          1    LIG   0.0000
   2 O2          -1.6637     2.2670    -4.3026 O.3          1    LIG   0.0000
   3 C3          -2.6384     1.4820    -3.6317 C.3          1    LIG   0.0000
   4 C4          -2.1855     1.2234    -2.2039 C.3          1    LIG   0.0000
   5 N5          -2.0208     2.5047    -1.5025 N.3          1    LIG   0.0000
   6 S6          -1.5352     2.2275     0.0286 S.o2         1    LIG   0.0000
   7 O7          -2.5236     1.4314     0.7090 O.2          1    LIG   0.0000
   8 O8          -1.3738     3.4826     0.7157 O.2          1    LIG   0.0000
   9 C9          -0.0173     1.3767     0.0106 C.ar         1    LIG   0.0000
  10 C10          1.1707     2.1003     0.0071 C.ar         1    LIG   0.0000
  11 C11          2.3816     1.4162    -0.0083 C.ar         1    LIG   0.0000
  12 C12          2.3947     0.0252    -0.0201 C.ar         1    LIG   0.0000
  13 C13          3.7226    -0.7135    -0.0371 C.3          1    LIG   0.0000
  14 N14          3.4770    -2.1628    -0.0474 N.am         1    LIG   0.0000
  15 C15          3.9557    -2.9459     0.9697 C.2          1    LIG   0.0000
  16 O16          3.3686    -3.9435     1.2861 O.2          1    LIG   0.0000
  17 C17          5.1707    -2.5697     1.6631 C.2          1    LIG   0.0000
  18 S18          5.5665    -2.9013     3.2859 S.3          1    LIG   0.0000
  19 C19          7.0850    -2.1340     3.2442 C.2          1    LIG   0.0000
  20 C20          7.9983    -2.0442     4.3674 C.ar         1    LIG   0.0000
  21 C21          8.6861    -0.8511     4.5660 C.ar         1    LIG   0.0000
  22 C22          9.5709    -0.7278     5.6322 C.ar         1    LIG   0.0000
  23 C23          9.7576    -1.8052     6.4925 C.ar         1    LIG   0.0000
  24 C24         10.7222    -1.6791     7.6606 C.3          1    LIG   0.0000
  25 C25          9.0727    -3.0009     6.3007 C.ar         1    LIG   0.0000
  26 C26          8.1893    -3.1175     5.2324 C.ar         1    LIG   0.0000
  27 C27          7.4515    -4.4329     5.0415 C.3          1    LIG   0.0000
  28 N28          7.2584    -1.6565     2.0359 N.2          1    LIG   0.0000
  29 C29          6.2322    -1.8808     1.1615 C.2          1    LIG   0.0000
  30 C30          6.2219    -1.4223    -0.2821 C.3          1    LIG   0.0000
  31 C31          1.2021    -0.6899    -0.0165 C.ar         1    LIG   0.0000
  32 C32         -0.0139    -0.0147    -0.0012 C.ar         1    LIG   0.0000
  33 H           -1.2636     3.1191    -6.0567 H            1    LIG   0.0000
  34 H           -2.0916     1.7160    -6.1670 H            1    LIG   0.0000
  35 H           -2.8519     3.0765    -5.6795 H            1    LIG   0.0000
  36 H           -2.7504     0.6104    -4.1089 H            1    LIG   0.0000
  37 H           -3.5107     1.9709    -3.6213 H            1    LIG   0.0000
  38 H           -2.8719     0.6706    -1.7315 H            1    LIG   0.0000
  39 H           -1.3132     0.7345    -2.2143 H            1    LIG   0.0000
  40 H           -1.3344     3.0576    -1.9749 H            1    LIG   0.0000
  41 H            1.1544     3.1001     0.0154 H            1    LIG   0.0000
  42 H            3.2429     1.9243    -0.0108 H            1    LIG   0.0000
  43 H            4.2364    -0.4567    -0.8557 H            1    LIG   0.0000
  44 H            4.2496    -0.4705     0.7772 H            1    LIG   0.0000
  45 H            2.9605    -2.5771    -0.7968 H            1    LIG   0.0000
  46 H            8.5443    -0.0824     3.9424 H            1    LIG   0.0000
  47 H           10.0683     0.1272     5.7790 H            1    LIG   0.0000
  48 H           11.1301    -0.7660     7.6590 H            1    LIG   0.0000
  49 H           10.2279    -1.8219     8.5180 H            1    LIG   0.0000
  50 H           11.4433    -2.3664     7.5731 H            1    LIG   0.0000
  51 H            9.2141    -3.7692     6.9249 H            1    LIG   0.0000
  52 H            7.7221    -5.0741     5.7596 H            1    LIG   0.0000
  53 H            6.4658    -4.2725     5.0920 H            1    LIG   0.0000
  54 H            7.6814    -4.8173     4.1474 H            1    LIG   0.0000
  55 H            5.3660    -1.7044    -0.7154 H            1    LIG   0.0000
  56 H            6.3001    -0.4259    -0.3159 H            1    LIG   0.0000
  57 H            6.9930    -1.8338    -0.7680 H            1    LIG   0.0000
  58 H            1.2186    -1.6897    -0.0248 H            1    LIG   0.0000
  59 H           -0.8751    -0.5230     0.0012 H            1    LIG   0.0000
@<TRIPOS>BOND
   1        1        2 1
   2        2        3 1
   3        3        4 1
   4        4        5 1
   5        5        6 1
   6        6        7 2
   7        6        8 2
   8        6        9 1
   9        9       10 ar
  10       10       11 ar
  11       11       12 ar
  12       12       13 1
  13       13       14 1
  14       14       15 am
  15       15       16 2
  16       15       17 1
  17       17       18 1
  18       18       19 1
  19       19       20 1
  20       20       21 ar
  21       21       22 ar
  22       22       23 ar
  23       23       24 1
  24       23       25 ar
  25       25       26 ar
  26       26       20 ar
  27       26       27 1
  28       19       28 2
  29       28       29 1
  30       29       17 2
  31       29       30 1
  32       12       31 ar
  33       31       32 ar
  34       32        9 ar
  35        1       33 1
  36        1       34 1
  37        1       35 1
  38        3       36 1
  39        3       37 1
  40        4       38 1
  41        4       39 1
  42        5       40 1
  43       10       41 1
  44       11       42 1
  45       13       43 1
  46       13       44 1
  47       14       45 1
  48       21       46 1
  49       22       47 1
  50       24       48 1
  51       24       49 1
  52       24       50 1
  53       25       51 1
  54       27       52 1
  55       27       53 1
  56       27       54 1
  57       30       55 1
  58       30       56 1
  59       30       57 1
  60       31       58 1
  61       32       59 1

@<TRIPOS>MOLECULE

  59   61
SMALL
USER_CHARGES
@<TRIPOS>ATOM
   1 C1          -1.9920     2.5668    -5.6512 C.3          1    LIG   0.0000
   2 O2          -1.6637     2.2670    -4.3026 O.3          1    LIG   0.0000
   3 C3          -2.6384     1.4820    -3.6317 C.3          1    LIG   0.0000
   4 C4          -2.1855     1.2234    -2.2039 C.3          1    LIG   0.0000
   5 N5          -2.0208     2.5047    -1.5025 N.3          1    LIG   0.0000
   6 S6          -1.5352     2.2275     0.0286 S.o2         1    LIG   0.0000
   7 O7          -2.5236     1.4314     0.7090 O.2          1    LIG   0.0000
   8 O8          -1.3738     3.4826     0.7157 O.2          1    LIG   0.0000
   9 C9          -0.0173     1.3767     0.0106 C.ar         1    LIG   0.0000
  10 C10          1.1707     2.1003     0.0071 C.ar         1    LIG   0.0000
  11 C11          2.3816     1.4162    -0.0083 C.ar         1    LIG   0.0000
  12 C12          2.3947     0.0252    -0.0201 C.ar         1    LIG   0.0000
  13 C13          3.7226    -0.7135    -0.0371 C.3          1    LIG   0.0000
  14 N14          4.1620    -0.9634     1.3432 N.am         1    LIG   0.0000
  15 C15          4.9435    -0.0431     1.9905 C.2          1    LIG   0.0000
  16 O16          5.2694     0.9671     1.4307 O.2          1    LIG   0.0000
  17 C17          5.3765    -0.2894     3.3508 C.2          1    LIG   0.0000
  18 S18          5.9219     0.8671     4.4757 S.3          1    LIG   0.0000
  19 C19          6.2016    -0.2460     5.7324 C.2          1    LIG   0.0000
  20 C20          6.7035     0.1002     7.0484 C.ar         1    LIG   0.0000
  21 C21          7.6329    -0.7462     7.6449 C.ar         1    LIG   0.0000
  22 C22          8.1362    -0.4473     8.9067 C.ar         1    LIG   0.0000
  23 C23          7.7023     0.7017     9.5602 C.ar         1    LIG   0.0000
  24 C24          8.2475     1.0364    10.9391 C.3          1    LIG   0.0000
  25 C25          6.7739     1.5532     8.9697 C.ar         1    LIG   0.0000
  26 C26          6.2744     1.2483     7.7076 C.ar         1    LIG   0.0000
  27 C27          5.2610     2.1924     7.0811 C.3          1    LIG   0.0000
  28 N28          5.8840    -1.4377     5.2887 N.2          1    LIG   0.0000
  29 C29          5.4345    -1.4851     3.9989 C.2          1    LIG   0.0000
  30 C30          5.0101    -2.7525     3.2862 C.3          1    LIG   0.0000
  31 C31          1.2021    -0.6899    -0.0165 C.ar         1    LIG   0.0000
  32 C32         -0.0139    -0.0147    -0.0012 C.ar         1    LIG   0.0000
  33 H           -1.2636     3.1191    -6.0567 H            1    LIG   0.0000
  34 H           -2.0916     1.7160    -6.1670 H            1    LIG   0.0000
  35 H           -2.8519     3.0765    -5.6795 H            1    LIG   0.0000
  36 H           -2.7504     0.6104    -4.1089 H            1    LIG   0.0000
  37 H           -3.5107     1.9709    -3.6213 H            1    LIG   0.0000
  38 H           -2.8719     0.6706    -1.7315 H            1    LIG   0.0000
  39 H           -1.3132     0.7345    -2.2143 H            1    LIG   0.0000
  40 H           -1.3344     3.0576    -1.9749 H            1    LIG   0.0000
  41 H            1.1544     3.1001     0.0154 H            1    LIG   0.0000
  42 H            3.2429     1.9243    -0.0108 H            1    LIG   0.0000
  43 H            3.6131    -1.5850    -0.5151 H            1    LIG   0.0000
  44 H            4.4070    -0.1580    -0.5094 H            1    LIG   0.0000
  45 H            3.8904    -1.8052     1.8097 H            1    LIG   0.0000
  46 H            7.9389    -1.5693     7.1665 H            1    LIG   0.0000
  47 H            8.8038    -1.0527     9.3401 H            1    LIG   0.0000
  48 H            8.8987     0.3315    11.2202 H            1    LIG   0.0000
  49 H            8.7086     1.9232    10.9090 H            1    LIG   0.0000
  50 H            7.4938     1.0747    11.5953 H            1    LIG   0.0000
  51 H            6.4685     2.3766     9.4480 H            1    LIG   0.0000
  52 H            5.0831     2.9528     7.7058 H            1    LIG   0.0000
  53 H            5.6239     2.5469     6.2193 H            1    LIG   0.0000
  54 H            4.4092     1.6987     6.9060 H            1    LIG   0.0000
  55 H            4.7217    -2.5306     2.3548 H            1    LIG   0.0000
  56 H            5.7795    -3.3904     3.2539 H            1    LIG   0.0000
  57 H            4.2487    -3.1733     3.7795 H            1    LIG   0.0000
  58 H            1.2186    -1.6897    -0.0248 H            1    LIG   0.0000
  59 H           -0.8751    -0.5230     0.0012 H            1    LIG   0.0000
@<TRIPOS>BOND
   1        1        2 1
   2        2        3 1
   3        3        4 1
   4        4        5 1
   5        5        6 1
   6        6        7 2
   7        6        8 2
   8        6        9 1
   9        9       10 ar
  10       10       11 ar
  11       11       12 ar
  12       12       13 1
  13       13       14 1
  14       14       15 am
  15       15       16 2
  16       15       17 1
  17       17       18 1
  18       18       19 1
  19       19       20 1
  20       20       21 ar
  21       21       22 ar
  22       22       23 ar
  23       23       24 1
  24       23       25 ar
  25       25       26 ar
  26       26       20 ar
  27       26       27 1
  28       19       28 2
  29       28       29 1
  30       29       17 2
  31       29       30 1
  32       12       31 ar
  33       31       32 ar
  34       32        9 ar
  35        1       33 1
  36        1       34 1
  37        1       35 1
  38        3       36 1
  39        3       37 1
  40        4       38 1
  41        4       39 1
  42        5       40 1
  43       10       41 1
  44       11       42 1
  45       13       43 1
  46       13       44 1
  47       14       45 1
  48       21       46 1
  49       22       47 1
  50       24       48 1
  51       24       49 1
  52       24       50 1
  53       25       51 1
  54       27       52 1
  55       27       53 1
  56       27       54 1
  57       30       55 1
  58       30       56 1
  59       30       57 1
  60       31       58 1
  61       32       59 1

@<TRIPOS>MOLECULE

  59   61
SMALL
USER_CHARGES
@<TRIPOS>ATOM
   1 C1          -1.9920     2.5668    -5.6512 C.3          1    LIG   0.0000
   2 O2          -1.6637     2.2670    -4.3026 O.3          1    LIG   0.0000
   3 C3          -2.6384     1.4820    -3.6317 C.3          1    LIG   0.0000
   4 C4          -2.1855     1.2234    -2.2039 C.3          1    LIG   0.0000
   5 N5          -2.0208     2.5047    -1.5025 N.3          1    LIG   0.0000
   6 S6          -1.5352     2.2275     0.0286 S.o2         1    LIG   0.0000
   7 O7          -2.5236     1.4314     0.7090 O.2          1    LIG   0.0000
   8 O8          -1.3738     3.4826     0.7157 O.2          1    LIG   0.0000
   9 C9          -0.0173     1.3767     0.0106 C.ar         1    LIG   0.0000
  10 C10          1.1707     2.1003     0.0071 C.ar         1    LIG   0.0000
  11 C11          2.3816     1.4162    -0.0083 C.ar         1    LIG   0.0000
  12 C12          2.3947     0.0252    -0.0201 C.ar         1    LIG   0.0000
  13 C13          3.7226    -0.7135    -0.0371 C.3          1    LIG   0.0000
  14 N14          3.7262    -1.7392     1.0159 N.am         1    LIG   0.0000
  15 C15          4.4554    -2.8873     0.8513 C.2          1    LIG   0.0000
  16 O16          4.6381    -3.3294    -0.2492 O.2          1    LIG   0.0000
  17 C17          5.0057    -3.5676     2.0058 C.2          1    LIG   0.0000
  18 S18          6.4297    -4.4999     2.0608 S.3          1    LIG   0.0000
  19 C19          6.3069    -4.8893     3.7131 C.2          1    LIG   0.0000
  20 C20          7.2550    -5.7088     4.4432 C.ar         1    LIG   0.0000
  21 C21          6.7628    -6.6189     5.3734 C.ar         1    LIG   0.0000
  22 C22          7.6418    -7.4215     6.0933 C.ar         1    LIG   0.0000
  23 C23          9.0104    -7.3041     5.8722 C.ar         1    LIG   0.0000
  24 C24          9.9782    -8.1775     6.6540 C.3          1    LIG   0.0000
  25 C25          9.5097    -6.3969     4.9431 C.ar         1    LIG   0.0000
  26 C26          8.6252    -5.5972     4.2266 C.ar         1    LIG   0.0000
  27 C27          9.1925    -4.6129     3.2165 C.3          1    LIG   0.0000
  28 N28          5.2214    -4.3203     4.1780 N.2          1    LIG   0.0000
  29 C29          4.4996    -3.5986     3.2691 C.2          1    LIG   0.0000
  30 C30          3.2178    -2.8574     3.5884 C.3          1    LIG   0.0000
  31 C31          1.2021    -0.6899    -0.0165 C.ar         1    LIG   0.0000
  32 C32         -0.0139    -0.0147    -0.0012 C.ar         1    LIG   0.0000
  33 H           -1.2636     3.1191    -6.0567 H            1    LIG   0.0000
  34 H           -2.0916     1.7160    -6.1670 H            1    LIG   0.0000
  35 H           -2.8519     3.0765    -5.6795 H            1    LIG   0.0000
  36 H           -2.7504     0.6104    -4.1089 H            1    LIG   0.0000
  37 H           -3.5107     1.9709    -3.6213 H            1    LIG   0.0000
  38 H           -2.8719     0.6706    -1.7315 H            1    LIG   0.0000
  39 H           -1.3132     0.7345    -2.2143 H            1    LIG   0.0000
  40 H           -1.3344     3.0576    -1.9749 H            1    LIG   0.0000
  41 H            1.1544     3.1001     0.0154 H            1    LIG   0.0000
  42 H            3.2429     1.9243    -0.0108 H            1    LIG   0.0000
  43 H            3.8499    -1.1498    -0.9279 H            1    LIG   0.0000
  44 H            4.4666    -0.0655     0.1260 H            1    LIG   0.0000
  45 H            3.1965    -1.5988     1.8524 H            1    LIG   0.0000
  46 H            5.7773    -6.6961     5.5245 H            1    LIG   0.0000
  47 H            7.2933    -8.0767     6.7635 H            1    LIG   0.0000
  48 H            9.4652    -8.7699     7.2752 H            1    LIG   0.0000
  49 H           10.5077    -8.7396     6.0186 H            1    LIG   0.0000
  50 H           10.5982    -7.5976     7.1824 H            1    LIG   0.0000
  51 H           10.4953    -6.3204     4.7918 H            1    LIG   0.0000
  52 H           10.1900    -4.6827     3.2070 H            1    LIG   0.0000
  53 H            8.8348    -4.8251     2.3071 H            1    LIG   0.0000
  54 H            8.9258    -3.6833     3.4710 H            1    LIG   0.0000
  55 H            2.8787    -2.4068     2.7626 H            1    LIG   0.0000
  56 H            2.5320    -3.5051     3.9203 H            1    LIG   0.0000
  57 H            3.3965    -2.1708     4.2932 H            1    LIG   0.0000
  58 H            1.2186    -1.6897    -0.0248 H            1    LIG   0.0000
  59 H           -0.8751    -0.5230     0.0012 H            1    LIG   0.0000
@<TRIPOS>BOND
   1        1        2 1
   2        2        3 1
   3        3        4 1
   4        4        5 1
   5        5        6 1
   6        6        7 2
   7        6        8 2
   8        6        9 1
   9        9       10 ar
  10       10       11 ar
  11       11       12 ar
  12       12       13 1
  13       13       14 1
  14       14       15 am
  15       15       16 2
  16       15       17 1
  17       17       18 1
  18       18       19 1
  19       19       20 1
  20       20       21 ar
  21       21       22 ar
  22       22       23 ar
  23       23       24 1
  24       23       25 ar
  25       25       26 ar
  26       26       20 ar
  27       26       27 1
  28       19       28 2
  29       28       29 1
  30       29       17 2
  31       29       30 1
  32       12       31 ar
  33       31       32 ar
  34       32        9 ar
  35        1       33 1
  36        1       34 1
  37        1       35 1
  38        3       36 1
  39        3       37 1
  40        4       38 1
  41        4       39 1
  42        5       40 1
  43       10       41 1
  44       11       42 1
  45       13       43 1
  46       13       44 1
  47       14       45 1
  48       21       46 1
  49       22       47 1
  50       24       48 1
  51       24       49 1
  52       24       50 1
  53       25       51 1
  54       27       52 1
  55       27       53 1
  56       27       54 1
  57       30       55 1
  58       30       56 1
  59       30       57 1
  60       31       58 1
  61       32       59 1

@<TRIPOS>MOLECULE

  59   61
SMALL
USER_CHARGES
@<TRIPOS>ATOM
   1 C1          -1.9920     2.5668    -5.6512 C.3          1    LIG   0.0000
   2 O2          -1.6637     2.2670    -4.3026 O.3          1    LIG   0.0000
   3 C3          -2.6384     1.4820    -3.6317 C.3          1    LIG   0.0000
   4 C4          -2.1855     1.2234    -2.2039 C.3          1    LIG   0.0000
   5 N5          -2.0208     2.5047    -1.5025 N.3          1    LIG   0.0000
   6 S6          -1.5352     2.2275     0.0286 S.o2         1    LIG   0.0000
   7 O7          -2.5236     1.4314     0.7090 O.2          1    LIG   0.0000
   8 O8          -1.3738     3.4826     0.7157 O.2          1    LIG   0.0000
   9 C9          -0.0173     1.3767     0.0106 C.ar         1    LIG   0.0000
  10 C10          1.1707     2.1003     0.0071 C.ar         1    LIG   0.0000
  11 C11          2.3816     1.4162    -0.0083 C.ar         1    LIG   0.0000
  12 C12          2.3947     0.0252    -0.0201 C.ar         1    LIG   0.0000
  13 C13          3.7226    -0.7135    -0.0371 C.3          1    LIG   0.0000
  14 N14          4.5924    -0.1822     1.0221 N.am         1    LIG   0.0000
  15 C15          5.4335     0.8661     0.7562 C.2          1    LIG   0.0000
  16 O16          5.7249     1.6375     1.6280 O.2          1    LIG   0.0000
  17 C17          5.9710     1.0433    -0.5773 C.2          1    LIG   0.0000
  18 S18          6.3987     2.5147    -1.3204 S.3          1    LIG   0.0000
  19 C19          6.9049     1.8162    -2.7875 C.2          1    LIG   0.0000
  20 C20          7.4159     2.5577    -3.9245 C.ar         1    LIG   0.0000
  21 C21          7.0271     2.1615    -5.2004 C.ar         1    LIG   0.0000
  22 C22          7.4973     2.8480    -6.3151 C.ar         1    LIG   0.0000
  23 C23          8.3548     3.9294    -6.1392 C.ar         1    LIG   0.0000
  24 C24          8.8730     4.6857    -7.3517 C.3          1    LIG   0.0000
  25 C25          8.7471     4.3318    -4.8666 C.ar         1    LIG   0.0000
  26 C26          8.2733     3.6408    -3.7560 C.ar         1    LIG   0.0000
  27 C27          8.7147     4.0974    -2.3749 C.3          1    LIG   0.0000
  28 N28          6.7462     0.5189    -2.6881 N.2          1    LIG   0.0000
  29 C29          6.2403     0.0772    -1.4978 C.2          1    LIG   0.0000
  30 C30          5.9799    -1.3774    -1.1653 C.3          1    LIG   0.0000
  31 C31          1.2021    -0.6899    -0.0165 C.ar         1    LIG   0.0000
  32 C32         -0.0139    -0.0147    -0.0012 C.ar         1    LIG   0.0000
  33 H           -1.2636     3.1191    -6.0567 H            1    LIG   0.0000
  34 H           -2.0916     1.7160    -6.1670 H            1    LIG   0.0000
  35 H           -2.8519     3.0765    -5.6795 H            1    LIG   0.0000
  36 H           -2.7504     0.6104    -4.1089 H            1    LIG   0.0000
  37 H           -3.5107     1.9709    -3.6213 H            1    LIG   0.0000
  38 H           -2.8719     0.6706    -1.7315 H            1    LIG   0.0000
  39 H           -1.3132     0.7345    -2.2143 H            1    LIG   0.0000
  40 H           -1.3344     3.0576    -1.9749 H            1    LIG   0.0000
  41 H            1.1544     3.1001     0.0154 H            1    LIG   0.0000
  42 H            3.2429     1.9243    -0.0108 H            1    LIG   0.0000
  43 H            3.5638    -1.6883     0.1196 H            1    LIG   0.0000
  44 H            4.1635    -0.5862    -0.9256 H            1    LIG   0.0000
  45 H            4.5703    -0.5859     1.9367 H            1    LIG   0.0000
  46 H            6.4098     1.3833    -5.3160 H            1    LIG   0.0000
  47 H            7.2215     2.5670    -7.2343 H            1    LIG   0.0000
  48 H            8.5012     4.2755    -8.1845 H            1    LIG   0.0000
  49 H            8.5871     5.6423    -7.2951 H            1    LIG   0.0000
  50 H            9.8716     4.6370    -7.3732 H            1    LIG   0.0000
  51 H            9.3639     5.1104    -4.7512 H            1    LIG   0.0000
  52 H            9.3251     4.8846    -2.4633 H            1    LIG   0.0000
  53 H            7.9123     4.3565    -1.8372 H            1    LIG   0.0000
  54 H            9.1971     3.3516    -1.9155 H            1    LIG   0.0000
  55 H            5.6106    -1.4466    -0.2386 H            1    LIG   0.0000
  56 H            5.3211    -1.7553    -1.8158 H            1    LIG   0.0000
  57 H            6.8362    -1.8908    -1.2220 H            1    LIG   0.0000
  58 H            1.2186    -1.6897    -0.0248 H            1    LIG   0.0000
  59 H           -0.8751    -0.5230     0.0012 H            1    LIG   0.0000
@<TRIPOS>BOND
   1        1        2 1
   2        2        3 1
   3        3        4 1
   4        4        5 1
   5        5        6 1
   6        6        7 2
   7        6        8 2
   8        6        9 1
   9        9       10 ar
  10       10       11 ar
  11       11       12 ar
  12       12       13 1
  13       13       14 1
  14       14       15 am
  15       15       16 2
  16       15       17 1
  17       17       18 1
  18       18       19 1
  19       19       20 1
  20       20       21 ar
  21       21       22 ar
  22       22       23 ar
  23       23       24 1
  24       23       25 ar
  25       25       26 ar
  26       26       20 ar
  27       26       27 1
  28       19       28 2
  29       28       29 1
  30       29       17 2
  31       29       30 1
  32       12       31 ar
  33       31       32 ar
  34       32        9 ar
  35        1       33 1
  36        1       34 1
  37        1       35 1
  38        3       36 1
  39        3       37 1
  40        4       38 1
  41        4       39 1
  42        5       40 1
  43       10       41 1
  44       11       42 1
  45       13       43 1
  46       13       44 1
  47       14       45 1
  48       21       46 1
  49       22       47 1
  50       24       48 1
  51       24       49 1
  52       24       50 1
  53       25       51 1
  54       27       52 1
  55       27       53 1
  56       27       54 1
  57       30       55 1
  58       30       56 1
  59       30       57 1
  60       31       58 1
  61       32       59 1

@<TRIPOS>MOLECULE

  59   61
SMALL
USER_CHARGES
@<TRIPOS>ATOM
   1 C1          -2.1968     3.1098    -5.3134 C.3          1    LIG   0.0000
   2 O2          -1.6637     2.2670    -4.3026 O.3          1    LIG   0.0000
   3 C3          -2.6384     1.4820    -3.6317 C.3          1    LIG   0.0000
   4 C4          -2.1855     1.2234    -2.2039 C.3          1    LIG   0.0000
   5 N5          -2.0208     2.5047    -1.5025 N.3          1    LIG   0.0000
   6 S6          -1.5352     2.2275     0.0286 S.o2         1    LIG   0.0000
   7 O7          -2.5236     1.4314     0.7090 O.2          1    LIG   0.0000
   8 O8          -1.3738     3.4826     0.7157 O.2          1    LIG   0.0000
   9 C9          -0.0173     1.3767     0.0106 C.ar         1    LIG   0.0000
  10 C10          1.1707     2.1003     0.0071 C.ar         1    LIG   0.0000
  11 C11          2.3816     1.4162    -0.0083 C.ar         1    LIG   0.0000
  12 C12          2.3947     0.0252    -0.0201 C.ar         1    LIG   0.0000
  13 C13          3.7226    -0.7135    -0.0371 C.3          1    LIG   0.0000
  14 N14          3.4770    -2.1628    -0.0474 N.am         1    LIG   0.0000
  15 C15          2.7860    -2.7478     0.9808 C.2          1    LIG   0.0000
  16 O16          2.3812    -2.0771     1.8898 O.2          1    LIG   0.0000
  17 C17          2.5439    -4.1760     0.9707 C.2          1    LIG   0.0000
  18 S18          1.3517    -5.0175     1.8485 S.3          1    LIG   0.0000
  19 C19          1.7747    -6.5587     1.2635 C.2          1    LIG   0.0000
  20 C20          1.1153    -7.7955     1.6366 C.ar         1    LIG   0.0000
  21 C21          1.5732    -8.9836     1.0758 C.ar         1    LIG   0.0000
  22 C22          0.9652   -10.1895     1.4093 C.ar         1    LIG   0.0000
  23 C23         -0.0990   -10.1926     2.3054 C.ar         1    LIG   0.0000
  24 C24         -0.7690   -11.5059     2.6758 C.3          1    LIG   0.0000
  25 C25         -0.5617    -9.0087     2.8708 C.ar         1    LIG   0.0000
  26 C26          0.0508    -7.8061     2.5330 C.ar         1    LIG   0.0000
  27 C27         -0.4708    -6.5245     3.1624 C.3          1    LIG   0.0000
  28 N28          2.7811    -6.4099     0.4369 N.2          1    LIG   0.0000
  29 C29          3.2153    -5.1257     0.2633 C.2          1    LIG   0.0000
  30 C30          4.3584    -4.7241    -0.6457 C.3          1    LIG   0.0000
  31 C31          1.2021    -0.6899    -0.0165 C.ar         1    LIG   0.0000
  32 C32         -0.0139    -0.0147    -0.0012 C.ar         1    LIG   0.0000
  33 H           -1.4560     3.6291    -5.7395 H            1    LIG   0.0000
  34 H           -2.6539     2.5517    -6.0060 H            1    LIG   0.0000
  35 H           -2.8561     3.7422    -4.9067 H            1    LIG   0.0000
  36 H           -2.7504     0.6104    -4.1089 H            1    LIG   0.0000
  37 H           -3.5107     1.9709    -3.6213 H            1    LIG   0.0000
  38 H           -2.8719     0.6706    -1.7315 H            1    LIG   0.0000
  39 H           -1.3132     0.7345    -2.2143 H            1    LIG   0.0000
  40 H           -1.3344     3.0576    -1.9749 H            1    LIG   0.0000
  41 H            1.1544     3.1001     0.0154 H            1    LIG   0.0000
  42 H            3.2429     1.9243    -0.0108 H            1    LIG   0.0000
  43 H            4.2364    -0.4567    -0.8557 H            1    LIG   0.0000
  44 H            4.2496    -0.4705     0.7772 H            1    LIG   0.0000
  45 H            3.8143    -2.7217    -0.8049 H            1    LIG   0.0000
  46 H            2.3393    -8.9707     0.4332 H            1    LIG   0.0000
  47 H            1.2900   -11.0462     1.0085 H            1    LIG   0.0000
  48 H           -0.3229   -12.2567     2.1887 H            1    LIG   0.0000
  49 H           -0.6894   -11.6543     3.6616 H            1    LIG   0.0000
  50 H           -1.7353   -11.4706     2.4210 H            1    LIG   0.0000
  51 H           -1.3273    -9.0219     3.5139 H            1    LIG   0.0000
  52 H           -1.2328    -6.7393     3.7734 H            1    LIG   0.0000
  53 H            0.2617    -6.0872     3.6842 H            1    LIG   0.0000
  54 H           -0.7845    -5.9038     2.4438 H            1    LIG   0.0000
  55 H            4.4857    -3.7332    -0.6034 H            1    LIG   0.0000
  56 H            5.1969    -5.1808    -0.3485 H            1    LIG   0.0000
  57 H            4.1474    -4.9933    -1.5854 H            1    LIG   0.0000
  58 H            1.2186    -1.6897    -0.0248 H            1    LIG   0.0000
  59 H           -0.8751    -0.5230     0.0012 H            1    LIG   0.0000
@<TRIPOS>BOND
   1        1        2 1
   2        2        3 1
   3        3        4 1
   4        4        5 1
   5        5        6 1
   6        6        7 2
   7        6        8 2
   8        6        9 1
   9        9       10 ar
  10       10       11 ar
  11       11       12 ar
  12       12       13 1
  13       13       14 1
  14       14       15 am
  15       15       16 2
  16       15       17 1
  17       17       18 1
  18       18       19 1
  19       19       20 1
  20       20       21 ar
  21       21       22 ar
  22       22       23 ar
  23       23       24 1
  24       23       25 ar
  25       25       26 ar
  26       26       20 ar
  27       26       27 1
  28       19       28 2
  29       28       29 1
  30       29       17 2
  31       29       30 1
  32       12       31 ar
  33       31       32 ar
  34       32        9 ar
  35        1       33 1
  36        1       34 1
  37        1       35 1
  38        3       36 1
  39        3       37 1
  40        4       38 1
  41        4       39 1
  42        5       40 1
  43       10       41 1
  44       11       42 1
  45       13       43 1
  46       13       44 1
  47       14       45 1
  48       21       46 1
  49       22       47 1
  50       24       48 1
  51       24       49 1
  52       24       50 1
  53       25       51 1
  54       27       52 1
  55       27       53 1
  56       27       54 1
  57       30       55 1
  58       30       56 1
  59       30       57 1
  60       31       58 1
  61       32       59 1

@<TRIPOS>MOLECULE

  59   61
SMALL
USER_CHARGES
@<TRIPOS>ATOM
   1 C1          -2.1968     3.1098    -5.3134 C.3          1    LIG   0.0000
   2 O2          -1.6637     2.2670    -4.3026 O.3          1    LIG   0.0000
   3 C3          -2.6384     1.4820    -3.6317 C.3          1    LIG   0.0000
   4 C4          -2.1855     1.2234    -2.2039 C.3          1    LIG   0.0000
   5 N5          -2.0208     2.5047    -1.5025 N.3          1    LIG   0.0000
   6 S6          -1.5352     2.2275     0.0286 S.o2         1    LIG   0.0000
   7 O7          -2.5236     1.4314     0.7090 O.2          1    LIG   0.0000
   8 O8          -1.3738     3.4826     0.7157 O.2          1    LIG   0.0000
   9 C9          -0.0173     1.3767     0.0106 C.ar         1    LIG   0.0000
  10 C10          1.1707     2.1003     0.0071 C.ar         1    LIG   0.0000
  11 C11          2.3816     1.4162    -0.0083 C.ar         1    LIG   0.0000
  12 C12          2.3947     0.0252    -0.0201 C.ar         1    LIG   0.0000
  13 C13          3.7226    -0.7135    -0.0371 C.3          1    LIG   0.0000
  14 N14          3.4770    -2.1628    -0.0474 N.am         1    LIG   0.0000
  15 C15          3.9557    -2.9459     0.9697 C.2          1    LIG   0.0000
  16 O16          4.0790    -2.4884     2.0721 O.2          1    LIG   0.0000
  17 C17          4.3131    -4.3264     0.7142 C.2          1    LIG   0.0000
  18 S18          5.5086    -5.2380     1.5139 S.3          1    LIG   0.0000
  19 C19          5.2541    -6.6630     0.6188 C.2          1    LIG   0.0000
  20 C20          5.9887    -7.8997     0.8047 C.ar         1    LIG   0.0000
  21 C21          7.3683    -7.8822     0.6248 C.ar         1    LIG   0.0000
  22 C22          8.1064    -9.0491     0.7938 C.ar         1    LIG   0.0000
  23 C23          7.4521   -10.2261     1.1435 C.ar         1    LIG   0.0000
  24 C24          8.2508   -11.5058     1.3308 C.3          1    LIG   0.0000
  25 C25          6.0731   -10.2510     1.3259 C.ar         1    LIG   0.0000
  26 C26          5.3409    -9.0805     1.1553 C.ar         1    LIG   0.0000
  27 C27          3.8353    -9.1304     1.3596 C.3          1    LIG   0.0000
  28 N28          4.2947    -6.4276    -0.2427 N.2          1    LIG   0.0000
  29 C29          3.7698    -5.1662    -0.2091 C.2          1    LIG   0.0000
  30 C30          2.6540    -4.6790    -1.1103 C.3          1    LIG   0.0000
  31 C31          1.2021    -0.6899    -0.0165 C.ar         1    LIG   0.0000
  32 C32         -0.0139    -0.0147    -0.0012 C.ar         1    LIG   0.0000
  33 H           -1.4560     3.6291    -5.7395 H            1    LIG   0.0000
  34 H           -2.6539     2.5517    -6.0060 H            1    LIG   0.0000
  35 H           -2.8561     3.7422    -4.9067 H            1    LIG   0.0000
  36 H           -2.7504     0.6104    -4.1089 H            1    LIG   0.0000
  37 H           -3.5107     1.9709    -3.6213 H            1    LIG   0.0000
  38 H           -2.8719     0.6706    -1.7315 H            1    LIG   0.0000
  39 H           -1.3132     0.7345    -2.2143 H            1    LIG   0.0000
  40 H           -1.3344     3.0576    -1.9749 H            1    LIG   0.0000
  41 H            1.1544     3.1001     0.0154 H            1    LIG   0.0000
  42 H            3.2429     1.9243    -0.0108 H            1    LIG   0.0000
  43 H            4.2364    -0.4567    -0.8557 H            1    LIG   0.0000
  44 H            4.2496    -0.4705     0.7772 H            1    LIG   0.0000
  45 H            2.9605    -2.5771    -0.7968 H            1    LIG   0.0000
  46 H            7.8291    -7.0309     0.3741 H            1    LIG   0.0000
  47 H            9.0980    -9.0421     0.6650 H            1    LIG   0.0000
  48 H            9.2196   -11.3214     1.1649 H            1    LIG   0.0000
  49 H            8.1305   -11.8401     2.2655 H            1    LIG   0.0000
  50 H            7.9279   -12.1977     0.6851 H            1    LIG   0.0000
  51 H            5.6125   -11.1023     1.5773 H            1    LIG   0.0000
  52 H            3.5629   -10.0606     1.6053 H            1    LIG   0.0000
  53 H            3.5776    -8.5026     2.0940 H            1    LIG   0.0000
  54 H            3.3751    -8.8607     0.5137 H            1    LIG   0.0000
  55 H            2.4453    -3.7248    -0.8962 H            1    LIG   0.0000
  56 H            2.9414    -4.7512    -2.0654 H            1    LIG   0.0000
  57 H            1.8388    -5.2394    -0.9642 H            1    LIG   0.0000
  58 H            1.2186    -1.6897    -0.0248 H            1    LIG   0.0000
  59 H           -0.8751    -0.5230     0.0012 H            1    LIG   0.0000
@<TRIPOS>BOND
   1        1        2 1
   2        2        3 1
   3        3        4 1
   4        4        5 1
   5        5        6 1
   6        6        7 2
   7        6        8 2
   8        6        9 1
   9        9       10 ar
  10       10       11 ar
  11       11       12 ar
  12       12       13 1
  13       13       14 1
  14       14       15 am
  15       15       16 2
  16       15       17 1
  17       17       18 1
  18       18       19 1
  19       19       20 1
  20       20       21 ar
  21       21       22 ar
  22       22       23 ar
  23       23       24 1
  24       23       25 ar
  25       25       26 ar
  26       26       20 ar
  27       26       27 1
  28       19       28 2
  29       28       29 1
  30       29       17 2
  31       29       30 1
  32       12       31 ar
  33       31       32 ar
  34       32        9 ar
  35        1       33 1
  36        1       34 1
  37        1       35 1
  38        3       36 1
  39        3       37 1
  40        4       38 1
  41        4       39 1
  42        5       40 1
  43       10       41 1
  44       11       42 1
  45       13       43 1
  46       13       44 1
  47       14       45 1
  48       21       46 1
  49       22       47 1
  50       24       48 1
  51       24       49 1
  52       24       50 1
  53       25       51 1
  54       27       52 1
  55       27       53 1
  56       27       54 1
  57       30       55 1
  58       30       56 1
  59       30       57 1
  60       31       58 1
  61       32       59 1

@<TRIPOS>MOLECULE

  59   61
SMALL
USER_CHARGES
@<TRIPOS>ATOM
   1 C1          -2.1968     3.1098    -5.3134 C.3          1    LIG   0.0000
   2 O2          -1.6637     2.2670    -4.3026 O.3          1    LIG   0.0000
   3 C3          -2.6384     1.4820    -3.6317 C.3          1    LIG   0.0000
   4 C4          -2.1855     1.2234    -2.2039 C.3          1    LIG   0.0000
   5 N5          -2.0208     2.5047    -1.5025 N.3          1    LIG   0.0000
   6 S6          -1.5352     2.2275     0.0286 S.o2         1    LIG   0.0000
   7 O7          -2.5236     1.4314     0.7090 O.2          1    LIG   0.0000
   8 O8          -1.3738     3.4826     0.7157 O.2          1    LIG   0.0000
   9 C9          -0.0173     1.3767     0.0106 C.ar         1    LIG   0.0000
  10 C10          1.1707     2.1003     0.0071 C.ar         1    LIG   0.0000
  11 C11          2.3816     1.4162    -0.0083 C.ar         1    LIG   0.0000
  12 C12          2.3947     0.0252    -0.0201 C.ar         1    LIG   0.0000
  13 C13          3.7226    -0.7135    -0.0371 C.3          1    LIG   0.0000
  14 N14          4.5924    -0.1822     1.0221 N.am         1    LIG   0.0000
  15 C15          5.9530    -0.1953     0.8620 C.2          1    LIG   0.0000
  16 O16          6.4711    -1.0525     0.2011 O.2          1    LIG   0.0000
  17 C17          6.7662     0.8256     1.4905 C.2          1    LIG   0.0000
  18 S18          8.4604     0.9772     1.4094 S.3          1    LIG   0.0000
  19 C19          8.5470     2.3707     2.3826 C.2          1    LIG   0.0000
  20 C20          9.7738     3.0597     2.7346 C.ar         1    LIG   0.0000
  21 C21         10.7557     3.2008     1.7588 C.ar         1    LIG   0.0000
  22 C22         11.9458     3.8551     2.0595 C.ar         1    LIG   0.0000
  23 C23         12.1403     4.3643     3.3395 C.ar         1    LIG   0.0000
  24 C24         13.4376     5.0812     3.6767 C.3          1    LIG   0.0000
  25 C25         11.1628     4.2277     4.3200 C.ar         1    LIG   0.0000
  26 C26          9.9749     3.5722     4.0127 C.ar         1    LIG   0.0000
  27 C27          8.9204     3.4343     5.0990 C.3          1    LIG   0.0000
  28 N28          7.3255     2.6859     2.7386 N.2          1    LIG   0.0000
  29 C29          6.3434     1.8611     2.2665 C.2          1    LIG   0.0000
  30 C30          4.8661     2.0395     2.5497 C.3          1    LIG   0.0000
  31 C31          1.2021    -0.6899    -0.0165 C.ar         1    LIG   0.0000
  32 C32         -0.0139    -0.0147    -0.0012 C.ar         1    LIG   0.0000
  33 H           -1.4560     3.6291    -5.7395 H            1    LIG   0.0000
  34 H           -2.6539     2.5517    -6.0060 H            1    LIG   0.0000
  35 H           -2.8561     3.7422    -4.9067 H            1    LIG   0.0000
  36 H           -2.7504     0.6104    -4.1089 H            1    LIG   0.0000
  37 H           -3.5107     1.9709    -3.6213 H            1    LIG   0.0000
  38 H           -2.8719     0.6706    -1.7315 H            1    LIG   0.0000
  39 H           -1.3132     0.7345    -2.2143 H            1    LIG   0.0000
  40 H           -1.3344     3.0576    -1.9749 H            1    LIG   0.0000
  41 H            1.1544     3.1001     0.0154 H            1    LIG   0.0000
  42 H            3.2429     1.9243    -0.0108 H            1    LIG   0.0000
  43 H            3.5638    -1.6883     0.1196 H            1    LIG   0.0000
  44 H            4.1635    -0.5862    -0.9256 H            1    LIG   0.0000
  45 H            4.1911     0.1888     1.8595 H            1    LIG   0.0000
  46 H           10.6058     2.8318     0.8416 H            1    LIG   0.0000
  47 H           12.6549     3.9586     1.3621 H            1    LIG   0.0000
  48 H           14.0300     5.0949     2.8712 H            1    LIG   0.0000
  49 H           13.2365     6.0194     3.9585 H            1    LIG   0.0000
  50 H           13.8998     4.6011     4.4223 H            1    LIG   0.0000
  51 H           11.3126     4.5974     5.2370 H            1    LIG   0.0000
  52 H            9.2500     3.8638     5.9398 H            1    LIG   0.0000
  53 H            8.0771     3.8833     4.8038 H            1    LIG   0.0000
  54 H            8.7407     2.4652     5.2680 H            1    LIG   0.0000
  55 H            4.3497     1.3130     2.0965 H            1    LIG   0.0000
  56 H            4.7082     1.9952     3.5362 H            1    LIG   0.0000
  57 H            4.5653     2.9281     2.2036 H            1    LIG   0.0000
  58 H            1.2186    -1.6897    -0.0248 H            1    LIG   0.0000
  59 H           -0.8751    -0.5230     0.0012 H            1    LIG   0.0000
@<TRIPOS>BOND
   1        1        2 1
   2        2        3 1
   3        3        4 1
   4        4        5 1
   5        5        6 1
   6        6        7 2
   7        6        8 2
   8        6        9 1
   9        9       10 ar
  10       10       11 ar
  11       11       12 ar
  12       12       13 1
  13       13       14 1
  14       14       15 am
  15       15       16 2
  16       15       17 1
  17       17       18 1
  18       18       19 1
  19       19       20 1
  20       20       21 ar
  21       21       22 ar
  22       22       23 ar
  23       23       24 1
  24       23       25 ar
  25       25       26 ar
  26       26       20 ar
  27       26       27 1
  28       19       28 2
  29       28       29 1
  30       29       17 2
  31       29       30 1
  32       12       31 ar
  33       31       32 ar
  34       32        9 ar
  35        1       33 1
  36        1       34 1
  37        1       35 1
  38        3       36 1
  39        3       37 1
  40        4       38 1
  41        4       39 1
  42        5       40 1
  43       10       41 1
  44       11       42 1
  45       13       43 1
  46       13       44 1
  47       14       45 1
  48       21       46 1
  49       22       47 1
  50       24       48 1
  51       24       49 1
  52       24       50 1
  53       25       51 1
  54       27       52 1
  55       27       53 1
  56       27       54 1
  57       30       55 1
  58       30       56 1
  59       30       57 1
  60       31       58 1
  61       32       59 1

@<TRIPOS>MOLECULE

  59   61
SMALL
USER_CHARGES
@<TRIPOS>ATOM
   1 C1          -1.5929     2.0290    -5.7007 C.3          1    LIG   0.0000
   2 O2          -1.6637     2.2670    -4.3026 O.3          1    LIG   0.0000
   3 C3          -2.6384     1.4820    -3.6317 C.3          1    LIG   0.0000
   4 C4          -2.1855     1.2234    -2.2039 C.3          1    LIG   0.0000
   5 N5          -2.0208     2.5047    -1.5025 N.3          1    LIG   0.0000
   6 S6          -1.5352     2.2275     0.0286 S.o2         1    LIG   0.0000
   7 O7          -2.5236     1.4314     0.7090 O.2          1    LIG   0.0000
   8 O8          -1.3738     3.4826     0.7157 O.2          1    LIG   0.0000
   9 C9          -0.0173     1.3767     0.0106 C.ar         1    LIG   0.0000
  10 C10          1.1707     2.1003     0.0071 C.ar         1    LIG   0.0000
  11 C11          2.3816     1.4162    -0.0083 C.ar         1    LIG   0.0000
  12 C12          2.3947     0.0252    -0.0201 C.ar         1    LIG   0.0000
  13 C13          3.7226    -0.7135    -0.0371 C.3          1    LIG   0.0000
  14 N14          4.5753    -0.1642    -1.1012 N.am         1    LIG   0.0000
  15 C15          4.5246    -0.6960    -2.3627 C.2          1    LIG   0.0000
  16 O16          4.7494    -0.0024    -3.3157 O.2          1    LIG   0.0000
  17 C17          4.1996    -2.0958    -2.5461 C.2          1    LIG   0.0000
  18 S18          3.4117    -2.7959    -3.8837 S.3          1    LIG   0.0000
  19 C19          3.4479    -4.3870    -3.2807 C.2          1    LIG   0.0000
  20 C20          2.9079    -5.5450    -3.9672 C.ar         1    LIG   0.0000
  21 C21          2.2328    -6.5026    -3.2169 C.ar         1    LIG   0.0000
  22 C22          1.7018    -7.6271    -3.8404 C.ar         1    LIG   0.0000
  23 C23          1.8526    -7.7805    -5.2149 C.ar         1    LIG   0.0000
  24 C24          1.2751    -9.0059    -5.9046 C.3          1    LIG   0.0000
  25 C25          2.5257    -6.8268    -5.9717 C.ar         1    LIG   0.0000
  26 C26          3.0543    -5.7047    -5.3419 C.ar         1    LIG   0.0000
  27 C27          3.7859    -4.6751    -6.1880 C.3          1    LIG   0.0000
  28 N28          4.0407    -4.3580    -2.1120 N.2          1    LIG   0.0000
  29 C29          4.4563    -3.1252    -1.6933 C.2          1    LIG   0.0000
  30 C30          5.1648    -2.8609    -0.3808 C.3          1    LIG   0.0000
  31 C31          1.2021    -0.6899    -0.0165 C.ar         1    LIG   0.0000
  32 C32         -0.0139    -0.0147    -0.0012 C.ar         1    LIG   0.0000
  33 H           -0.8888     2.6141    -6.1032 H            1    LIG   0.0000
  34 H           -1.3628     1.0697    -5.8643 H            1    LIG   0.0000
  35 H           -2.4773     2.2357    -6.1192 H            1    LIG   0.0000
  36 H           -2.7504     0.6104    -4.1089 H            1    LIG   0.0000
  37 H           -3.5107     1.9709    -3.6213 H            1    LIG   0.0000
  38 H           -2.8719     0.6706    -1.7315 H            1    LIG   0.0000
  39 H           -1.3132     0.7345    -2.2143 H            1    LIG   0.0000
  40 H           -1.3344     3.0576    -1.9749 H            1    LIG   0.0000
  41 H            1.1544     3.1001     0.0154 H            1    LIG   0.0000
  42 H            3.2429     1.9243    -0.0108 H            1    LIG   0.0000
  43 H            4.1778    -0.6012     0.8461 H            1    LIG   0.0000
  44 H            3.5611    -1.6855    -0.2078 H            1    LIG   0.0000
  45 H            5.1923     0.5976    -0.9041 H            1    LIG   0.0000
  46 H            2.1293    -6.3826    -2.2295 H            1    LIG   0.0000
  47 H            1.2163    -8.3186    -3.3056 H            1    LIG   0.0000
  48 H            0.8264    -9.5892    -5.2274 H            1    LIG   0.0000
  49 H            0.6075    -8.7183    -6.5914 H            1    LIG   0.0000
  50 H            2.0114    -9.5165    -6.3487 H            1    LIG   0.0000
  51 H            2.6285    -6.9467    -6.9592 H            1    LIG   0.0000
  52 H            3.7844    -4.9678    -7.1442 H            1    LIG   0.0000
  53 H            3.3254    -3.7910    -6.1093 H            1    LIG   0.0000
  54 H            4.7291    -4.5894    -5.8671 H            1    LIG   0.0000
  55 H            5.3662    -1.8846    -0.3015 H            1    LIG   0.0000
  56 H            4.5773    -3.1428     0.3778 H            1    LIG   0.0000
  57 H            6.0185    -3.3807    -0.3522 H            1    LIG   0.0000
  58 H            1.2186    -1.6897    -0.0248 H            1    LIG   0.0000
  59 H           -0.8751    -0.5230     0.0012 H            1    LIG   0.0000
@<TRIPOS>BOND
   1        1        2 1
   2        2        3 1
   3        3        4 1
   4        4        5 1
   5        5        6 1
   6        6        7 2
   7        6        8 2
   8        6        9 1
   9        9       10 ar
  10       10       11 ar
  11       11       12 ar
  12       12       13 1
  13       13       14 1
  14       14       15 am
  15       15       16 2
  16       15       17 1
  17       17       18 1
  18       18       19 1
  19       19       20 1
  20       20       21 ar
  21       21       22 ar
  22       22       23 ar
  23       23       24 1
  24       23       25 ar
  25       25       26 ar
  26       26       20 ar
  27       26       27 1
  28       19       28 2
  29       28       29 1
  30       29       17 2
  31       29       30 1
  32       12       31 ar
  33       31       32 ar
  34       32        9 ar
  35        1       33 1
  36        1       34 1
  37        1       35 1
  38        3       36 1
  39        3       37 1
  40        4       38 1
  41        4       39 1
  42        5       40 1
  43       10       41 1
  44       11       42 1
  45       13       43 1
  46       13       44 1
  47       14       45 1
  48       21       46 1
  49       22       47 1
  50       24       48 1
  51       24       49 1
  52       24       50 1
  53       25       51 1
  54       27       52 1
  55       27       53 1
  56       27       54 1
  57       30       55 1
  58       30       56 1
  59       30       57 1
  60       31       58 1
  61       32       59 1

@<TRIPOS>MOLECULE

  59   61
SMALL
USER_CHARGES
@<TRIPOS>ATOM
   1 C1          -1.5929     2.0290    -5.7007 C.3          1    LIG   0.0000
   2 O2          -1.6637     2.2670    -4.3026 O.3          1    LIG   0.0000
   3 C3          -2.6384     1.4820    -3.6317 C.3          1    LIG   0.0000
   4 C4          -2.1855     1.2234    -2.2039 C.3          1    LIG   0.0000
   5 N5          -2.0208     2.5047    -1.5025 N.3          1    LIG   0.0000
   6 S6          -1.5352     2.2275     0.0286 S.o2         1    LIG   0.0000
   7 O7          -2.5236     1.4314     0.7090 O.2          1    LIG   0.0000
   8 O8          -1.3738     3.4826     0.7157 O.2          1    LIG   0.0000
   9 C9          -0.0173     1.3767     0.0106 C.ar         1    LIG   0.0000
  10 C10          1.1707     2.1003     0.0071 C.ar         1    LIG   0.0000
  11 C11          2.3816     1.4162    -0.0083 C.ar         1    LIG   0.0000
  12 C12          2.3947     0.0252    -0.0201 C.ar         1    LIG   0.0000
  13 C13          3.7226    -0.7135    -0.0371 C.3          1    LIG   0.0000
  14 N14          4.5753    -0.1642    -1.1012 N.am         1    LIG   0.0000
  15 C15          5.4902    -0.9677    -1.7291 C.2          1    LIG   0.0000
  16 O16          6.5041    -0.4960    -2.1643 O.2          1    LIG   0.0000
  17 C17          5.2336    -2.3866    -1.8676 C.2          1    LIG   0.0000
  18 S18          6.3913    -3.6341    -1.9285 S.3          1    LIG   0.0000
  19 C19          5.2626    -4.8972    -2.0931 C.2          1    LIG   0.0000
  20 C20          5.6035    -6.3024    -2.2064 C.ar         1    LIG   0.0000
  21 C21          5.2112    -6.9871    -3.3524 C.ar         1    LIG   0.0000
  22 C22          5.5196    -8.3359    -3.4963 C.ar         1    LIG   0.0000
  23 C23          6.2214    -8.9871    -2.4870 C.ar         1    LIG   0.0000
  24 C24          6.5631   -10.4608    -2.6361 C.3          1    LIG   0.0000
  25 C25          6.6176    -8.3088    -1.3387 C.ar         1    LIG   0.0000
  26 C26          6.3059    -6.9601    -1.2011 C.ar         1    LIG   0.0000
  27 C27          6.7485    -6.2385     0.0616 C.3          1    LIG   0.0000
  28 N28          4.0649    -4.3647    -2.0969 N.2          1    LIG   0.0000
  29 C29          4.0253    -3.0040    -1.9764 C.2          1    LIG   0.0000
  30 C30          2.7523    -2.1833    -1.9539 C.3          1    LIG   0.0000
  31 C31          1.2021    -0.6899    -0.0165 C.ar         1    LIG   0.0000
  32 C32         -0.0139    -0.0147    -0.0012 C.ar         1    LIG   0.0000
  33 H           -0.8888     2.6141    -6.1032 H            1    LIG   0.0000
  34 H           -1.3628     1.0697    -5.8643 H            1    LIG   0.0000
  35 H           -2.4773     2.2357    -6.1192 H            1    LIG   0.0000
  36 H           -2.7504     0.6104    -4.1089 H            1    LIG   0.0000
  37 H           -3.5107     1.9709    -3.6213 H            1    LIG   0.0000
  38 H           -2.8719     0.6706    -1.7315 H            1    LIG   0.0000
  39 H           -1.3132     0.7345    -2.2143 H            1    LIG   0.0000
  40 H           -1.3344     3.0576    -1.9749 H            1    LIG   0.0000
  41 H            1.1544     3.1001     0.0154 H            1    LIG   0.0000
  42 H            3.2429     1.9243    -0.0108 H            1    LIG   0.0000
  43 H            4.1778    -0.6012     0.8461 H            1    LIG   0.0000
  44 H            3.5611    -1.6855    -0.2078 H            1    LIG   0.0000
  45 H            4.4875     0.7959    -1.3666 H            1    LIG   0.0000
  46 H            4.7077    -6.5096    -4.0725 H            1    LIG   0.0000
  47 H            5.2394    -8.8327    -4.3177 H            1    LIG   0.0000
  48 H            6.2111   -10.7979    -3.5093 H            1    LIG   0.0000
  49 H            7.5560   -10.5771    -2.6097 H            1    LIG   0.0000
  50 H            6.1470   -10.9769    -1.8874 H            1    LIG   0.0000
  51 H            7.1217    -8.7863    -0.6191 H            1    LIG   0.0000
  52 H            7.2355    -6.8772     0.6573 H            1    LIG   0.0000
  53 H            7.3550    -5.4816    -0.1821 H            1    LIG   0.0000
  54 H            5.9462    -5.8819     0.5403 H            1    LIG   0.0000
  55 H            2.9818    -1.2147    -1.8577 H            1    LIG   0.0000
  56 H            2.2501    -2.3237    -2.8071 H            1    LIG   0.0000
  57 H            2.1847    -2.4696    -1.1819 H            1    LIG   0.0000
  58 H            1.2186    -1.6897    -0.0248 H            1    LIG   0.0000
  59 H           -0.8751    -0.5230     0.0012 H            1    LIG   0.0000
@<TRIPOS>BOND
   1        1        2 1
   2        2        3 1
   3        3        4 1
   4        4        5 1
   5        5        6 1
   6        6        7 2
   7        6        8 2
   8        6        9 1
   9        9       10 ar
  10       10       11 ar
  11       11       12 ar
  12       12       13 1
  13       13       14 1
  14       14       15 am
  15       15       16 2
  16       15       17 1
  17       17       18 1
  18       18       19 1
  19       19       20 1
  20       20       21 ar
  21       21       22 ar
  22       22       23 ar
  23       23       24 1
  24       23       25 ar
  25       25       26 ar
  26       26       20 ar
  27       26       27 1
  28       19       28 2
  29       28       29 1
  30       29       17 2
  31       29       30 1
  32       12       31 ar
  33       31       32 ar
  34       32        9 ar
  35        1       33 1
  36        1       34 1
  37        1       35 1
  38        3       36 1
  39        3       37 1
  40        4       38 1
  41        4       39 1
  42        5       40 1
  43       10       41 1
  44       11       42 1
  45       13       43 1
  46       13       44 1
  47       14       45 1
  48       21       46 1
  49       22       47 1
  50       24       48 1
  51       24       49 1
  52       24       50 1
  53       25       51 1
  54       27       52 1
  55       27       53 1
  56       27       54 1
  57       30       55 1
  58       30       56 1
  59       30       57 1
  60       31       58 1
  61       32       59 1

@<TRIPOS>MOLECULE

  59   61
SMALL
USER_CHARGES
@<TRIPOS>ATOM
   1 C1          -1.5929     2.0290    -5.7007 C.3          1    LIG   0.0000
   2 O2          -1.6637     2.2670    -4.3026 O.3          1    LIG   0.0000
   3 C3          -2.6384     1.4820    -3.6317 C.3          1    LIG   0.0000
   4 C4          -2.1855     1.2234    -2.2039 C.3          1    LIG   0.0000
   5 N5          -2.0208     2.5047    -1.5025 N.3          1    LIG   0.0000
   6 S6          -1.5352     2.2275     0.0286 S.o2         1    LIG   0.0000
   7 O7          -2.5236     1.4314     0.7090 O.2          1    LIG   0.0000
   8 O8          -1.3738     3.4826     0.7157 O.2          1    LIG   0.0000
   9 C9          -0.0173     1.3767     0.0106 C.ar         1    LIG   0.0000
  10 C10          1.1707     2.1003     0.0071 C.ar         1    LIG   0.0000
  11 C11          2.3816     1.4162    -0.0083 C.ar         1    LIG   0.0000
  12 C12          2.3947     0.0252    -0.0201 C.ar         1    LIG   0.0000
  13 C13          3.7226    -0.7135    -0.0371 C.3          1    LIG   0.0000
  14 N14          3.7091    -1.7212    -1.1073 N.am         1    LIG   0.0000
  15 C15          3.8772    -3.0463    -0.8027 C.2          1    LIG   0.0000
  16 O16          3.5102    -3.4691     0.2587 O.2          1    LIG   0.0000
  17 C17          4.4980    -3.9369    -1.7618 C.2          1    LIG   0.0000
  18 S18          4.3831    -5.6354    -1.8035 S.3          1    LIG   0.0000
  19 C19          5.3671    -5.8325    -3.1781 C.2          1    LIG   0.0000
  20 C20          5.6997    -7.1085    -3.7820 C.ar         1    LIG   0.0000
  21 C21          5.1835    -8.2660    -3.2077 C.ar         1    LIG   0.0000
  22 C22          5.4812    -9.5080    -3.7587 C.ar         1    LIG   0.0000
  23 C23          6.2957    -9.5779    -4.8845 C.ar         1    LIG   0.0000
  24 C24          6.6258   -10.9310    -5.4935 C.3          1    LIG   0.0000
  25 C25          6.8148    -8.4249    -5.4646 C.ar         1    LIG   0.0000
  26 C26          6.5131    -7.1859    -4.9086 C.ar         1    LIG   0.0000
  27 C27          7.0909    -5.9390    -5.5586 C.3          1    LIG   0.0000
  28 N28          5.7512    -4.6417    -3.5685 N.2          1    LIG   0.0000
  29 C29          5.2920    -3.5984    -2.8144 C.2          1    LIG   0.0000
  30 C30          5.6075    -2.1420    -3.0857 C.3          1    LIG   0.0000
  31 C31          1.2021    -0.6899    -0.0165 C.ar         1    LIG   0.0000
  32 C32         -0.0139    -0.0147    -0.0012 C.ar         1    LIG   0.0000
  33 H           -0.8888     2.6141    -6.1032 H            1    LIG   0.0000
  34 H           -1.3628     1.0697    -5.8643 H            1    LIG   0.0000
  35 H           -2.4773     2.2357    -6.1192 H            1    LIG   0.0000
  36 H           -2.7504     0.6104    -4.1089 H            1    LIG   0.0000
  37 H           -3.5107     1.9709    -3.6213 H            1    LIG   0.0000
  38 H           -2.8719     0.6706    -1.7315 H            1    LIG   0.0000
  39 H           -1.3132     0.7345    -2.2143 H            1    LIG   0.0000
  40 H           -1.3344     3.0576    -1.9749 H            1    LIG   0.0000
  41 H            1.1544     3.1001     0.0154 H            1    LIG   0.0000
  42 H            3.2429     1.9243    -0.0108 H            1    LIG   0.0000
  43 H            4.4639    -0.0628    -0.2014 H            1    LIG   0.0000
  44 H            3.8643    -1.1648     0.8439 H            1    LIG   0.0000
  45 H            3.5771    -1.4395    -2.0577 H            1    LIG   0.0000
  46 H            4.5985    -8.2049    -2.3990 H            1    LIG   0.0000
  47 H            5.1133   -10.3430    -3.3494 H            1    LIG   0.0000
  48 H            6.1798   -11.6526    -4.9640 H            1    LIG   0.0000
  49 H            6.2989   -10.9601    -6.4381 H            1    LIG   0.0000
  50 H            7.6160   -11.0704    -5.4790 H            1    LIG   0.0000
  51 H            7.3992    -8.4861    -6.2737 H            1    LIG   0.0000
  52 H            7.6443    -6.2012    -6.3491 H            1    LIG   0.0000
  53 H            6.3456    -5.3425    -5.8564 H            1    LIG   0.0000
  54 H            7.6629    -5.4531    -4.8977 H            1    LIG   0.0000
  55 H            5.1585    -1.5701    -2.3992 H            1    LIG   0.0000
  56 H            6.5966    -2.0013    -3.0415 H            1    LIG   0.0000
  57 H            5.2758    -1.8929    -3.9956 H            1    LIG   0.0000
  58 H            1.2186    -1.6897    -0.0248 H            1    LIG   0.0000
  59 H           -0.8751    -0.5230     0.0012 H            1    LIG   0.0000
@<TRIPOS>BOND
   1        1        2 1
   2        2        3 1
   3        3        4 1
   4        4        5 1
   5        5        6 1
   6        6        7 2
   7        6        8 2
   8        6        9 1
   9        9       10 ar
  10       10       11 ar
  11       11       12 ar
  12       12       13 1
  13       13       14 1
  14       14       15 am
  15       15       16 2
  16       15       17 1
  17       17       18 1
  18       18       19 1
  19       19       20 1
  20       20       21 ar
  21       21       22 ar
  22       22       23 ar
  23       23       24 1
  24       23       25 ar
  25       25       26 ar
  26       26       20 ar
  27       26       27 1
  28       19       28 2
  29       28       29 1
  30       29       17 2
  31       29       30 1
  32       12       31 ar
  33       31       32 ar
  34       32        9 ar
  35        1       33 1
  36        1       34 1
  37        1       35 1
  38        3       36 1
  39        3       37 1
  40        4       38 1
  41        4       39 1
  42        5       40 1
  43       10       41 1
  44       11       42 1
  45       13       43 1
  46       13       44 1
  47       14       45 1
  48       21       46 1
  49       22       47 1
  50       24       48 1
  51       24       49 1
  52       24       50 1
  53       25       51 1
  54       27       52 1
  55       27       53 1
  56       27       54 1
  57       30       55 1
  58       30       56 1
  59       30       57 1
  60       31       58 1
  61       32       59 1

@<TRIPOS>MOLECULE

  59   61
SMALL
USER_CHARGES
@<TRIPOS>ATOM
   1 C1          -1.5929     2.0290    -5.7007 C.3          1    LIG   0.0000
   2 O2          -1.6637     2.2670    -4.3026 O.3          1    LIG   0.0000
   3 C3          -2.6384     1.4820    -3.6317 C.3          1    LIG   0.0000
   4 C4          -2.1855     1.2234    -2.2039 C.3          1    LIG   0.0000
   5 N5          -2.0208     2.5047    -1.5025 N.3          1    LIG   0.0000
   6 S6          -1.5352     2.2275     0.0286 S.o2         1    LIG   0.0000
   7 O7          -2.5236     1.4314     0.7090 O.2          1    LIG   0.0000
   8 O8          -1.3738     3.4826     0.7157 O.2          1    LIG   0.0000
   9 C9          -0.0173     1.3767     0.0106 C.ar         1    LIG   0.0000
  10 C10          1.1707     2.1003     0.0071 C.ar         1    LIG   0.0000
  11 C11          2.3816     1.4162    -0.0083 C.ar         1    LIG   0.0000
  12 C12          2.3947     0.0252    -0.0201 C.ar         1    LIG   0.0000
  13 C13          3.7226    -0.7135    -0.0371 C.3          1    LIG   0.0000
  14 N14          3.7262    -1.7392     1.0159 N.am         1    LIG   0.0000
  15 C15          3.5667    -1.3753     2.3270 C.2          1    LIG   0.0000
  16 O16          3.7804    -0.2443     2.6661 O.2          1    LIG   0.0000
  17 C17          3.1399    -2.3561     3.3041 C.2          1    LIG   0.0000
  18 S18          3.3289    -2.2653     4.9941 S.3          1    LIG   0.0000
  19 C19          2.5831    -3.7593     5.3228 C.2          1    LIG   0.0000
  20 C20          2.4051    -4.3219     6.6478 C.ar         1    LIG   0.0000
  21 C21          2.0466    -3.4675     7.6857 C.ar         1    LIG   0.0000
  22 C22          1.8676    -3.9707     8.9702 C.ar         1    LIG   0.0000
  23 C23          2.0494    -5.3303     9.2021 C.ar         1    LIG   0.0000
  24 C24          1.8554    -5.8889    10.6025 C.3          1    LIG   0.0000
  25 C25          2.4070    -6.1908     8.1691 C.ar         1    LIG   0.0000
  26 C26          2.5845    -5.6811     6.8869 C.ar         1    LIG   0.0000
  27 C27          2.9750    -6.6391     5.7731 C.3          1    LIG   0.0000
  28 N28          2.2145    -4.2822     4.1788 N.2          1    LIG   0.0000
  29 C29          2.5070    -3.5383     3.0702 C.2          1    LIG   0.0000
  30 C30          2.1699    -3.9476     1.6513 C.3          1    LIG   0.0000
  31 C31          1.2021    -0.6899    -0.0165 C.ar         1    LIG   0.0000
  32 C32         -0.0139    -0.0147    -0.0012 C.ar         1    LIG   0.0000
  33 H           -0.8888     2.6141    -6.1032 H            1    LIG   0.0000
  34 H           -1.3628     1.0697    -5.8643 H            1    LIG   0.0000
  35 H           -2.4773     2.2357    -6.1192 H            1    LIG   0.0000
  36 H           -2.7504     0.6104    -4.1089 H            1    LIG   0.0000
  37 H           -3.5107     1.9709    -3.6213 H            1    LIG   0.0000
  38 H           -2.8719     0.6706    -1.7315 H            1    LIG   0.0000
  39 H           -1.3132     0.7345    -2.2143 H            1    LIG   0.0000
  40 H           -1.3344     3.0576    -1.9749 H            1    LIG   0.0000
  41 H            1.1544     3.1001     0.0154 H            1    LIG   0.0000
  42 H            3.2429     1.9243    -0.0108 H            1    LIG   0.0000
  43 H            3.8499    -1.1498    -0.9279 H            1    LIG   0.0000
  44 H            4.4666    -0.0655     0.1260 H            1    LIG   0.0000
  45 H            3.8452    -2.7024     0.7752 H            1    LIG   0.0000
  46 H            1.9177    -2.4918     7.5084 H            1    LIG   0.0000
  47 H            1.6107    -3.3608     9.7198 H            1    LIG   0.0000
  48 H            1.6025    -5.1481    11.2248 H            1    LIG   0.0000
  49 H            1.1289    -6.5760    10.5897 H            1    LIG   0.0000
  50 H            2.7071    -6.3101    10.9144 H            1    LIG   0.0000
  51 H            2.5352    -7.1666     8.3465 H            1    LIG   0.0000
  52 H            3.0547    -7.5650     6.1424 H            1    LIG   0.0000
  53 H            2.2746    -6.6240     5.0595 H            1    LIG   0.0000
  54 H            3.8527    -6.3585     5.3846 H            1    LIG   0.0000
  55 H            2.4840    -3.2412     1.0170 H            1    LIG   0.0000
  56 H            2.6231    -4.8130     1.4374 H            1    LIG   0.0000
  57 H            1.1801    -4.0589     1.5627 H            1    LIG   0.0000
  58 H            1.2186    -1.6897    -0.0248 H            1    LIG   0.0000
  59 H           -0.8751    -0.5230     0.0012 H            1    LIG   0.0000
@<TRIPOS>BOND
   1        1        2 1
   2        2        3 1
   3        3        4 1
   4        4        5 1
   5        5        6 1
   6        6        7 2
   7        6        8 2
   8        6        9 1
   9        9       10 ar
  10       10       11 ar
  11       11       12 ar
  12       12       13 1
  13       13       14 1
  14       14       15 am
  15       15       16 2
  16       15       17 1
  17       17       18 1
  18       18       19 1
  19       19       20 1
  20       20       21 ar
  21       21       22 ar
  22       22       23 ar
  23       23       24 1
  24       23       25 ar
  25       25       26 ar
  26       26       20 ar
  27       26       27 1
  28       19       28 2
  29       28       29 1
  30       29       17 2
  31       29       30 1
  32       12       31 ar
  33       31       32 ar
  34       32        9 ar
  35        1       33 1
  36        1       34 1
  37        1       35 1
  38        3       36 1
  39        3       37 1
  40        4       38 1
  41        4       39 1
  42        5       40 1
  43       10       41 1
  44       11       42 1
  45       13       43 1
  46       13       44 1
  47       14       45 1
  48       21       46 1
  49       22       47 1
  50       24       48 1
  51       24       49 1
  52       24       50 1
  53       25       51 1
  54       27       52 1
  55       27       53 1
  56       27       54 1
  57       30       55 1
  58       30       56 1
  59       30       57 1
  60       31       58 1
  61       32       59 1

