@<TRIPOS>MOLECULE
*****
 59 61 0 0 0
SMALL
USER_CHARGES

@<TRIPOS>ATOM
      1 C1         -2.1968    3.1098   -5.3134 C.3     1  LIG1        0.0000
      2 O2         -1.6637    2.2670   -4.3026 O.3     1  LIG1        0.0000
      3 C3         -2.6384    1.4820   -3.6317 C.3     1  LIG1        0.0000
      4 C4         -2.1855    1.2234   -2.2039 C.3     1  LIG1        0.0000
      5 N5         -2.0208    2.5047   -1.5025 N.3     1  LIG1        0.0000
      6 S6         -1.5352    2.2275    0.0286 S.O2    1  LIG1        0.0000
      7 O7         -2.5236    1.4314    0.7090 O.2     1  LIG1        0.0000
      8 O8         -1.3738    3.4826    0.7157 O.2     1  LIG1        0.0000
      9 C9         -0.0173    1.3767    0.0106 C.3     1  LIG1        0.0000
     10 C10         1.1707    2.1003    0.0071 C.3     1  LIG1        0.0000
     11 C11         2.3816    1.4162   -0.0083 C.3     1  LIG1        0.0000
     12 C12         2.3947    0.0252   -0.0201 C.3     1  LIG1        0.0000
     13 C13         3.7226   -0.7135   -0.0371 C.3     1  LIG1        0.0000
     14 N14         4.5924   -0.1822    1.0221 N.am    1  LIG1        0.0000
     15 C15         5.9530   -0.1953    0.8620 C.2     1  LIG1        0.0000
     16 O16         6.4711   -1.0525    0.2011 O.2     1  LIG1        0.0000
     17 C17         6.7662    0.8256    1.4905 C.2     1  LIG1        0.0000
     18 S18         8.4604    0.9772    1.4094 S.3     1  LIG1        0.0000
     19 C19         8.5470    2.3707    2.3826 C.2     1  LIG1        0.0000
     20 C20         9.7738    3.0597    2.7346 C.3     1  LIG1        0.0000
     21 C21        10.7557    3.2008    1.7588 C.3     1  LIG1        0.0000
     22 C22        11.9458    3.8551    2.0595 C.3     1  LIG1        0.0000
     23 C23        12.1403    4.3643    3.3395 C.3     1  LIG1        0.0000
     24 C24        13.4376    5.0812    3.6767 C.3     1  LIG1        0.0000
     25 C25        11.1628    4.2277    4.3200 C.3     1  LIG1        0.0000
     26 C26         9.9749    3.5722    4.0127 C.3     1  LIG1        0.0000
     27 C27         8.9204    3.4343    5.0990 C.3     1  LIG1        0.0000
     28 N28         7.3255    2.6859    2.7386 N.2     1  LIG1        0.0000
     29 C29         6.3434    1.8611    2.2665 C.2     1  LIG1        0.0000
     30 C30         4.8661    2.0395    2.5497 C.3     1  LIG1        0.0000
     31 C31         1.2021   -0.6899   -0.0165 C.3     1  LIG1        0.0000
     32 C32        -0.0139   -0.0147   -0.0012 C.3     1  LIG1        0.0000
     33 H          -1.4560    3.6291   -5.7395 H       1  LIG1        0.0000
     34 H          -2.6539    2.5517   -6.0060 H       1  LIG1        0.0000
     35 H          -2.8561    3.7422   -4.9067 H       1  LIG1        0.0000
     36 H          -2.7504    0.6104   -4.1089 H       1  LIG1        0.0000
     37 H          -3.5107    1.9709   -3.6213 H       1  LIG1        0.0000
     38 H          -2.8719    0.6706   -1.7315 H       1  LIG1        0.0000
     39 H          -1.3132    0.7345   -2.2143 H       1  LIG1        0.0000
     40 H          -1.3344    3.0576   -1.9749 H       1  LIG1        0.0000
     41 H           1.1544    3.1001    0.0154 H       1  LIG1        0.0000
     42 H           3.2429    1.9243   -0.0108 H       1  LIG1        0.0000
     43 H           3.5638   -1.6883    0.1196 H       1  LIG1        0.0000
     44 H           4.1635   -0.5862   -0.9256 H       1  LIG1        0.0000
     45 H           4.1911    0.1888    1.8595 H       1  LIG1        0.0000
     46 H          10.6058    2.8318    0.8416 H       1  LIG1        0.0000
     47 H          12.6549    3.9586    1.3621 H       1  LIG1        0.0000
     48 H          14.0300    5.0949    2.8712 H       1  LIG1        0.0000
     49 H          13.2365    6.0194    3.9585 H       1  LIG1        0.0000
     50 H          13.8998    4.6011    4.4223 H       1  LIG1        0.0000
     51 H          11.3126    4.5974    5.2370 H       1  LIG1        0.0000
     52 H           9.2500    3.8638    5.9398 H       1  LIG1        0.0000
     53 H           8.0771    3.8833    4.8038 H       1  LIG1        0.0000
     54 H           8.7407    2.4652    5.2680 H       1  LIG1        0.0000
     55 H           4.3497    1.3130    2.0965 H       1  LIG1        0.0000
     56 H           4.7082    1.9952    3.5362 H       1  LIG1        0.0000
     57 H           4.5653    2.9281    2.2036 H       1  LIG1        0.0000
     58 H           1.2186   -1.6897   -0.0248 H       1  LIG1        0.0000
     59 H          -0.8751   -0.5230    0.0012 H       1  LIG1        0.0000
@<TRIPOS>BOND
     1     1     2    1
     2     2     3    1
     3     3     4    1
     4     4     5    1
     5     5     6    1
     6     6     7    2
     7     6     8    2
     8     6     9    1
     9     9    10   ar
    10    10    11   ar
    11    11    12   ar
    12    12    13    1
    13    13    14    1
    14    14    15   am
    15    15    16    2
    16    15    17    1
    17    17    18    1
    18    18    19    1
    19    19    20    1
    20    20    21   ar
    21    21    22   ar
    22    22    23   ar
    23    23    24    1
    24    23    25   ar
    25    25    26   ar
    26    26    20   ar
    27    26    27    1
    28    19    28    2
    29    28    29    1
    30    29    17    2
    31    29    30    1
    32    12    31   ar
    33    31    32   ar
    34    32     9   ar
    35     1    33    1
    36     1    34    1
    37     1    35    1
    38     3    36    1
    39     3    37    1
    40     4    38    1
    41     4    39    1
    42     5    40    1
    43    10    41    1
    44    11    42    1
    45    13    43    1
    46    13    44    1
    47    14    45    1
    48    21    46    1
    49    22    47    1
    50    24    48    1
    51    24    49    1
    52    24    50    1
    53    25    51    1
    54    27    52    1
    55    27    53    1
    56    27    54    1
    57    30    55    1
    58    30    56    1
    59    30    57    1
    60    31    58    1
    61    32    59    1
