@<TRIPOS>MOLECULE
*****
 59 61 0 0 0
SMALL
USER_CHARGES

@<TRIPOS>ATOM
      1 C1         -1.9920    2.5668   -5.6512 C.3     1  LIG1        0.0000
      2 O2         -1.6637    2.2670   -4.3026 O.3     1  LIG1        0.0000
      3 C3         -2.6384    1.4820   -3.6317 C.3     1  LIG1        0.0000
      4 C4         -2.1855    1.2234   -2.2039 C.3     1  LIG1        0.0000
      5 N5         -2.0208    2.5047   -1.5025 N.3     1  LIG1        0.0000
      6 S6         -1.5352    2.2275    0.0286 S.O2    1  LIG1        0.0000
      7 O7         -2.5236    1.4314    0.7090 O.2     1  LIG1        0.0000
      8 O8         -1.3738    3.4826    0.7157 O.2     1  LIG1        0.0000
      9 C9         -0.0173    1.3767    0.0106 C.3     1  LIG1        0.0000
     10 C10         1.1707    2.1003    0.0071 C.3     1  LIG1        0.0000
     11 C11         2.3816    1.4162   -0.0083 C.3     1  LIG1        0.0000
     12 C12         2.3947    0.0252   -0.0201 C.3     1  LIG1        0.0000
     13 C13         3.7226   -0.7135   -0.0371 C.3     1  LIG1        0.0000
     14 N14         4.1395   -0.9400   -1.4285 N.am    1  LIG1        0.0000
     15 C15         5.3145   -1.5926   -1.6938 C.2     1  LIG1        0.0000
     16 O16         5.8200   -2.2839   -0.8532 O.2     1  LIG1        0.0000
     17 C17         5.9467   -1.4481   -2.9892 C.2     1  LIG1        0.0000
     18 S18         7.6138   -1.5263   -3.3280 S.3     1  LIG1        0.0000
     19 C19         7.4534   -1.2627   -5.0017 C.2     1  LIG1        0.0000
     20 C20         8.5577   -1.2055   -5.9403 C.3     1  LIG1        0.0000
     21 C21         8.2722   -0.9810   -7.2835 C.3     1  LIG1        0.0000
     22 C22         9.3052   -0.9204   -8.2132 C.3     1  LIG1        0.0000
     23 C23        10.6188   -1.0851   -7.7857 C.3     1  LIG1        0.0000
     24 C24        11.7539   -1.0199   -8.7947 C.3     1  LIG1        0.0000
     25 C25        10.9119   -1.3091   -6.4442 C.3     1  LIG1        0.0000
     26 C26         9.8741   -1.3686   -5.5197 C.3     1  LIG1        0.0000
     27 C27        10.2170   -1.6143   -4.0592 C.3     1  LIG1        0.0000
     28 N28         6.1764   -1.1261   -5.2641 N.2     1  LIG1        0.0000
     29 C29         5.3406   -1.2226   -4.1871 C.2     1  LIG1        0.0000
     30 C30         3.8326   -1.1003   -4.2601 C.3     1  LIG1        0.0000
     31 C31         1.2021   -0.6899   -0.0165 C.3     1  LIG1        0.0000
     32 C32        -0.0139   -0.0147   -0.0012 C.3     1  LIG1        0.0000
     33 H          -1.2636    3.1191   -6.0567 H       1  LIG1        0.0000
     34 H          -2.0916    1.7160   -6.1670 H       1  LIG1        0.0000
     35 H          -2.8519    3.0765   -5.6795 H       1  LIG1        0.0000
     36 H          -2.7504    0.6104   -4.1089 H       1  LIG1        0.0000
     37 H          -3.5107    1.9709   -3.6213 H       1  LIG1        0.0000
     38 H          -2.8719    0.6706   -1.7315 H       1  LIG1        0.0000
     39 H          -1.3132    0.7345   -2.2143 H       1  LIG1        0.0000
     40 H          -1.3344    3.0576   -1.9749 H       1  LIG1        0.0000
     41 H           1.1544    3.1001    0.0154 H       1  LIG1        0.0000
     42 H           3.2429    1.9243   -0.0108 H       1  LIG1        0.0000
     43 H           4.4146   -0.1660    0.4333 H       1  LIG1        0.0000
     44 H           3.6207   -1.5930    0.4277 H       1  LIG1        0.0000
     45 H           3.5656   -0.6176   -2.1812 H       1  LIG1        0.0000
     46 H           7.3246   -0.8632   -7.5804 H       1  LIG1        0.0000
     47 H           9.1054   -0.7600   -9.1798 H       1  LIG1        0.0000
     48 H          11.3797   -0.8543   -9.7071 H       1  LIG1        0.0000
     49 H          12.3757   -0.2762   -8.5493 H       1  LIG1        0.0000
     50 H          12.2530   -1.8865   -8.7914 H       1  LIG1        0.0000
     51 H          11.8596   -1.4262   -6.1474 H       1  LIG1        0.0000
     52 H          11.2080   -1.7044   -3.9600 H       1  LIG1        0.0000
     53 H           9.8954   -0.8449   -3.5073 H       1  LIG1        0.0000
     54 H           9.7732   -2.4552   -3.7495 H       1  LIG1        0.0000
     55 H           3.4448   -1.2062   -3.3445 H       1  LIG1        0.0000
     56 H           3.5883   -0.2014   -4.6237 H       1  LIG1        0.0000
     57 H           3.4691   -1.8127   -4.8605 H       1  LIG1        0.0000
     58 H           1.2186   -1.6897   -0.0248 H       1  LIG1        0.0000
     59 H          -0.8751   -0.5230    0.0012 H       1  LIG1        0.0000
@<TRIPOS>BOND
     1     1     2    1
     2     2     3    1
     3     3     4    1
     4     4     5    1
     5     5     6    1
     6     6     7    2
     7     6     8    2
     8     6     9    1
     9     9    10   ar
    10    10    11   ar
    11    11    12   ar
    12    12    13    1
    13    13    14    1
    14    14    15   am
    15    15    16    2
    16    15    17    1
    17    17    18    1
    18    18    19    1
    19    19    20    1
    20    20    21   ar
    21    21    22   ar
    22    22    23   ar
    23    23    24    1
    24    23    25   ar
    25    25    26   ar
    26    26    20   ar
    27    26    27    1
    28    19    28    2
    29    28    29    1
    30    29    17    2
    31    29    30    1
    32    12    31   ar
    33    31    32   ar
    34    32     9   ar
    35     1    33    1
    36     1    34    1
    37     1    35    1
    38     3    36    1
    39     3    37    1
    40     4    38    1
    41     4    39    1
    42     5    40    1
    43    10    41    1
    44    11    42    1
    45    13    43    1
    46    13    44    1
    47    14    45    1
    48    21    46    1
    49    22    47    1
    50    24    48    1
    51    24    49    1
    52    24    50    1
    53    25    51    1
    54    27    52    1
    55    27    53    1
    56    27    54    1
    57    30    55    1
    58    30    56    1
    59    30    57    1
    60    31    58    1
    61    32    59    1
