@<TRIPOS>MOLECULE
*****
 59 61 0 0 0
SMALL
USER_CHARGES

@<TRIPOS>ATOM
      1 C1         -1.5929    2.0290   -5.7007 C.3     1  LIG1        0.0000
      2 O2         -1.6637    2.2670   -4.3026 O.3     1  LIG1        0.0000
      3 C3         -2.6384    1.4820   -3.6317 C.3     1  LIG1        0.0000
      4 C4         -2.1855    1.2234   -2.2039 C.3     1  LIG1        0.0000
      5 N5         -2.0208    2.5047   -1.5025 N.3     1  LIG1        0.0000
      6 S6         -1.5352    2.2275    0.0286 S.O2    1  LIG1        0.0000
      7 O7         -2.5236    1.4314    0.7090 O.2     1  LIG1        0.0000
      8 O8         -1.3738    3.4826    0.7157 O.2     1  LIG1        0.0000
      9 C9         -0.0173    1.3767    0.0106 C.3     1  LIG1        0.0000
     10 C10         1.1707    2.1003    0.0071 C.3     1  LIG1        0.0000
     11 C11         2.3816    1.4162   -0.0083 C.3     1  LIG1        0.0000
     12 C12         2.3947    0.0252   -0.0201 C.3     1  LIG1        0.0000
     13 C13         3.7226   -0.7135   -0.0371 C.3     1  LIG1        0.0000
     14 N14         4.5753   -0.1642   -1.1012 N.am    1  LIG1        0.0000
     15 C15         4.5246   -0.6960   -2.3627 C.2     1  LIG1        0.0000
     16 O16         4.7494   -0.0024   -3.3157 O.2     1  LIG1        0.0000
     17 C17         4.1996   -2.0958   -2.5461 C.2     1  LIG1        0.0000
     18 S18         3.4117   -2.7959   -3.8837 S.3     1  LIG1        0.0000
     19 C19         3.4479   -4.3870   -3.2807 C.2     1  LIG1        0.0000
     20 C20         2.9079   -5.5450   -3.9672 C.3     1  LIG1        0.0000
     21 C21         2.2328   -6.5026   -3.2169 C.3     1  LIG1        0.0000
     22 C22         1.7018   -7.6271   -3.8404 C.3     1  LIG1        0.0000
     23 C23         1.8526   -7.7805   -5.2149 C.3     1  LIG1        0.0000
     24 C24         1.2751   -9.0059   -5.9046 C.3     1  LIG1        0.0000
     25 C25         2.5257   -6.8268   -5.9717 C.3     1  LIG1        0.0000
     26 C26         3.0543   -5.7047   -5.3419 C.3     1  LIG1        0.0000
     27 C27         3.7859   -4.6751   -6.1880 C.3     1  LIG1        0.0000
     28 N28         4.0407   -4.3580   -2.1120 N.2     1  LIG1        0.0000
     29 C29         4.4563   -3.1252   -1.6933 C.2     1  LIG1        0.0000
     30 C30         5.1648   -2.8609   -0.3808 C.3     1  LIG1        0.0000
     31 C31         1.2021   -0.6899   -0.0165 C.3     1  LIG1        0.0000
     32 C32        -0.0139   -0.0147   -0.0012 C.3     1  LIG1        0.0000
     33 H          -0.8888    2.6141   -6.1032 H       1  LIG1        0.0000
     34 H          -1.3628    1.0697   -5.8643 H       1  LIG1        0.0000
     35 H          -2.4773    2.2357   -6.1192 H       1  LIG1        0.0000
     36 H          -2.7504    0.6104   -4.1089 H       1  LIG1        0.0000
     37 H          -3.5107    1.9709   -3.6213 H       1  LIG1        0.0000
     38 H          -2.8719    0.6706   -1.7315 H       1  LIG1        0.0000
     39 H          -1.3132    0.7345   -2.2143 H       1  LIG1        0.0000
     40 H          -1.3344    3.0576   -1.9749 H       1  LIG1        0.0000
     41 H           1.1544    3.1001    0.0154 H       1  LIG1        0.0000
     42 H           3.2429    1.9243   -0.0108 H       1  LIG1        0.0000
     43 H           4.1778   -0.6012    0.8461 H       1  LIG1        0.0000
     44 H           3.5611   -1.6855   -0.2078 H       1  LIG1        0.0000
     45 H           5.1923    0.5976   -0.9041 H       1  LIG1        0.0000
     46 H           2.1293   -6.3826   -2.2295 H       1  LIG1        0.0000
     47 H           1.2163   -8.3186   -3.3056 H       1  LIG1        0.0000
     48 H           0.8264   -9.5892   -5.2274 H       1  LIG1        0.0000
     49 H           0.6075   -8.7183   -6.5914 H       1  LIG1        0.0000
     50 H           2.0114   -9.5165   -6.3487 H       1  LIG1        0.0000
     51 H           2.6285   -6.9467   -6.9592 H       1  LIG1        0.0000
     52 H           3.7844   -4.9678   -7.1442 H       1  LIG1        0.0000
     53 H           3.3254   -3.7910   -6.1093 H       1  LIG1        0.0000
     54 H           4.7291   -4.5894   -5.8671 H       1  LIG1        0.0000
     55 H           5.3662   -1.8846   -0.3015 H       1  LIG1        0.0000
     56 H           4.5773   -3.1428    0.3778 H       1  LIG1        0.0000
     57 H           6.0185   -3.3807   -0.3522 H       1  LIG1        0.0000
     58 H           1.2186   -1.6897   -0.0248 H       1  LIG1        0.0000
     59 H          -0.8751   -0.5230    0.0012 H       1  LIG1        0.0000
@<TRIPOS>BOND
     1     1     2    1
     2     2     3    1
     3     3     4    1
     4     4     5    1
     5     5     6    1
     6     6     7    2
     7     6     8    2
     8     6     9    1
     9     9    10   ar
    10    10    11   ar
    11    11    12   ar
    12    12    13    1
    13    13    14    1
    14    14    15   am
    15    15    16    2
    16    15    17    1
    17    17    18    1
    18    18    19    1
    19    19    20    1
    20    20    21   ar
    21    21    22   ar
    22    22    23   ar
    23    23    24    1
    24    23    25   ar
    25    25    26   ar
    26    26    20   ar
    27    26    27    1
    28    19    28    2
    29    28    29    1
    30    29    17    2
    31    29    30    1
    32    12    31   ar
    33    31    32   ar
    34    32     9   ar
    35     1    33    1
    36     1    34    1
    37     1    35    1
    38     3    36    1
    39     3    37    1
    40     4    38    1
    41     4    39    1
    42     5    40    1
    43    10    41    1
    44    11    42    1
    45    13    43    1
    46    13    44    1
    47    14    45    1
    48    21    46    1
    49    22    47    1
    50    24    48    1
    51    24    49    1
    52    24    50    1
    53    25    51    1
    54    27    52    1
    55    27    53    1
    56    27    54    1
    57    30    55    1
    58    30    56    1
    59    30    57    1
    60    31    58    1
    61    32    59    1
