@<TRIPOS>MOLECULE
*****
 59 61 0 0 0
SMALL
USER_CHARGES

@<TRIPOS>ATOM
      1 C1         -2.1968    3.1098   -5.3134 C.3     1  LIG1        0.0000
      2 O2         -1.6637    2.2670   -4.3026 O.3     1  LIG1        0.0000
      3 C3         -2.6384    1.4820   -3.6317 C.3     1  LIG1        0.0000
      4 C4         -2.1855    1.2234   -2.2039 C.3     1  LIG1        0.0000
      5 N5         -2.0208    2.5047   -1.5025 N.3     1  LIG1        0.0000
      6 S6         -1.5352    2.2275    0.0286 S.O2    1  LIG1        0.0000
      7 O7         -2.5236    1.4314    0.7090 O.2     1  LIG1        0.0000
      8 O8         -1.3738    3.4826    0.7157 O.2     1  LIG1        0.0000
      9 C9         -0.0173    1.3767    0.0106 C.3     1  LIG1        0.0000
     10 C10         1.1707    2.1003    0.0071 C.3     1  LIG1        0.0000
     11 C11         2.3816    1.4162   -0.0083 C.3     1  LIG1        0.0000
     12 C12         2.3947    0.0252   -0.0201 C.3     1  LIG1        0.0000
     13 C13         3.7226   -0.7135   -0.0371 C.3     1  LIG1        0.0000
     14 N14         3.4770   -2.1628   -0.0474 N.am    1  LIG1        0.0000
     15 C15         2.7860   -2.7478    0.9808 C.2     1  LIG1        0.0000
     16 O16         2.3812   -2.0771    1.8898 O.2     1  LIG1        0.0000
     17 C17         2.5439   -4.1760    0.9707 C.2     1  LIG1        0.0000
     18 S18         1.3517   -5.0175    1.8485 S.3     1  LIG1        0.0000
     19 C19         1.7747   -6.5587    1.2635 C.2     1  LIG1        0.0000
     20 C20         1.1153   -7.7955    1.6366 C.3     1  LIG1        0.0000
     21 C21         1.5732   -8.9836    1.0758 C.3     1  LIG1        0.0000
     22 C22         0.9652  -10.1895    1.4093 C.3     1  LIG1        0.0000
     23 C23        -0.0990  -10.1926    2.3054 C.3     1  LIG1        0.0000
     24 C24        -0.7690  -11.5059    2.6758 C.3     1  LIG1        0.0000
     25 C25        -0.5617   -9.0087    2.8708 C.3     1  LIG1        0.0000
     26 C26         0.0508   -7.8061    2.5330 C.3     1  LIG1        0.0000
     27 C27        -0.4708   -6.5245    3.1624 C.3     1  LIG1        0.0000
     28 N28         2.7811   -6.4099    0.4369 N.2     1  LIG1        0.0000
     29 C29         3.2153   -5.1257    0.2633 C.2     1  LIG1        0.0000
     30 C30         4.3584   -4.7241   -0.6457 C.3     1  LIG1        0.0000
     31 C31         1.2021   -0.6899   -0.0165 C.3     1  LIG1        0.0000
     32 C32        -0.0139   -0.0147   -0.0012 C.3     1  LIG1        0.0000
     33 H          -1.4560    3.6291   -5.7395 H       1  LIG1        0.0000
     34 H          -2.6539    2.5517   -6.0060 H       1  LIG1        0.0000
     35 H          -2.8561    3.7422   -4.9067 H       1  LIG1        0.0000
     36 H          -2.7504    0.6104   -4.1089 H       1  LIG1        0.0000
     37 H          -3.5107    1.9709   -3.6213 H       1  LIG1        0.0000
     38 H          -2.8719    0.6706   -1.7315 H       1  LIG1        0.0000
     39 H          -1.3132    0.7345   -2.2143 H       1  LIG1        0.0000
     40 H          -1.3344    3.0576   -1.9749 H       1  LIG1        0.0000
     41 H           1.1544    3.1001    0.0154 H       1  LIG1        0.0000
     42 H           3.2429    1.9243   -0.0108 H       1  LIG1        0.0000
     43 H           4.2364   -0.4567   -0.8557 H       1  LIG1        0.0000
     44 H           4.2496   -0.4705    0.7772 H       1  LIG1        0.0000
     45 H           3.8143   -2.7217   -0.8049 H       1  LIG1        0.0000
     46 H           2.3393   -8.9707    0.4332 H       1  LIG1        0.0000
     47 H           1.2900  -11.0462    1.0085 H       1  LIG1        0.0000
     48 H          -0.3229  -12.2567    2.1887 H       1  LIG1        0.0000
     49 H          -0.6894  -11.6543    3.6616 H       1  LIG1        0.0000
     50 H          -1.7353  -11.4706    2.4210 H       1  LIG1        0.0000
     51 H          -1.3273   -9.0219    3.5139 H       1  LIG1        0.0000
     52 H          -1.2328   -6.7393    3.7734 H       1  LIG1        0.0000
     53 H           0.2617   -6.0872    3.6842 H       1  LIG1        0.0000
     54 H          -0.7845   -5.9038    2.4438 H       1  LIG1        0.0000
     55 H           4.4857   -3.7332   -0.6034 H       1  LIG1        0.0000
     56 H           5.1969   -5.1808   -0.3485 H       1  LIG1        0.0000
     57 H           4.1474   -4.9933   -1.5854 H       1  LIG1        0.0000
     58 H           1.2186   -1.6897   -0.0248 H       1  LIG1        0.0000
     59 H          -0.8751   -0.5230    0.0012 H       1  LIG1        0.0000
@<TRIPOS>BOND
     1     1     2    1
     2     2     3    1
     3     3     4    1
     4     4     5    1
     5     5     6    1
     6     6     7    2
     7     6     8    2
     8     6     9    1
     9     9    10   ar
    10    10    11   ar
    11    11    12   ar
    12    12    13    1
    13    13    14    1
    14    14    15   am
    15    15    16    2
    16    15    17    1
    17    17    18    1
    18    18    19    1
    19    19    20    1
    20    20    21   ar
    21    21    22   ar
    22    22    23   ar
    23    23    24    1
    24    23    25   ar
    25    25    26   ar
    26    26    20   ar
    27    26    27    1
    28    19    28    2
    29    28    29    1
    30    29    17    2
    31    29    30    1
    32    12    31   ar
    33    31    32   ar
    34    32     9   ar
    35     1    33    1
    36     1    34    1
    37     1    35    1
    38     3    36    1
    39     3    37    1
    40     4    38    1
    41     4    39    1
    42     5    40    1
    43    10    41    1
    44    11    42    1
    45    13    43    1
    46    13    44    1
    47    14    45    1
    48    21    46    1
    49    22    47    1
    50    24    48    1
    51    24    49    1
    52    24    50    1
    53    25    51    1
    54    27    52    1
    55    27    53    1
    56    27    54    1
    57    30    55    1
    58    30    56    1
    59    30    57    1
    60    31    58    1
    61    32    59    1
