@<TRIPOS>MOLECULE
*****
 59 61 0 0 0
SMALL
USER_CHARGES

@<TRIPOS>ATOM
      1 C1         -1.5929    2.0290   -5.7007 C.3     1  LIG1        0.0000
      2 O2         -1.6637    2.2670   -4.3026 O.3     1  LIG1        0.0000
      3 C3         -2.6384    1.4820   -3.6317 C.3     1  LIG1        0.0000
      4 C4         -2.1855    1.2234   -2.2039 C.3     1  LIG1        0.0000
      5 N5         -2.0208    2.5047   -1.5025 N.3     1  LIG1        0.0000
      6 S6         -1.5352    2.2275    0.0286 S.O2    1  LIG1        0.0000
      7 O7         -2.5236    1.4314    0.7090 O.2     1  LIG1        0.0000
      8 O8         -1.3738    3.4826    0.7157 O.2     1  LIG1        0.0000
      9 C9         -0.0173    1.3767    0.0106 C.3     1  LIG1        0.0000
     10 C10         1.1707    2.1003    0.0071 C.3     1  LIG1        0.0000
     11 C11         2.3816    1.4162   -0.0083 C.3     1  LIG1        0.0000
     12 C12         2.3947    0.0252   -0.0201 C.3     1  LIG1        0.0000
     13 C13         3.7226   -0.7135   -0.0371 C.3     1  LIG1        0.0000
     14 N14         3.7262   -1.7392    1.0159 N.am    1  LIG1        0.0000
     15 C15         3.5667   -1.3753    2.3270 C.2     1  LIG1        0.0000
     16 O16         3.7804   -0.2443    2.6661 O.2     1  LIG1        0.0000
     17 C17         3.1399   -2.3561    3.3041 C.2     1  LIG1        0.0000
     18 S18         3.3289   -2.2653    4.9941 S.3     1  LIG1        0.0000
     19 C19         2.5831   -3.7593    5.3228 C.2     1  LIG1        0.0000
     20 C20         2.4051   -4.3219    6.6478 C.3     1  LIG1        0.0000
     21 C21         2.0466   -3.4675    7.6857 C.3     1  LIG1        0.0000
     22 C22         1.8676   -3.9707    8.9702 C.3     1  LIG1        0.0000
     23 C23         2.0494   -5.3303    9.2021 C.3     1  LIG1        0.0000
     24 C24         1.8554   -5.8889   10.6025 C.3     1  LIG1        0.0000
     25 C25         2.4070   -6.1908    8.1691 C.3     1  LIG1        0.0000
     26 C26         2.5845   -5.6811    6.8869 C.3     1  LIG1        0.0000
     27 C27         2.9750   -6.6391    5.7731 C.3     1  LIG1        0.0000
     28 N28         2.2145   -4.2822    4.1788 N.2     1  LIG1        0.0000
     29 C29         2.5070   -3.5383    3.0702 C.2     1  LIG1        0.0000
     30 C30         2.1699   -3.9476    1.6513 C.3     1  LIG1        0.0000
     31 C31         1.2021   -0.6899   -0.0165 C.3     1  LIG1        0.0000
     32 C32        -0.0139   -0.0147   -0.0012 C.3     1  LIG1        0.0000
     33 H          -0.8888    2.6141   -6.1032 H       1  LIG1        0.0000
     34 H          -1.3628    1.0697   -5.8643 H       1  LIG1        0.0000
     35 H          -2.4773    2.2357   -6.1192 H       1  LIG1        0.0000
     36 H          -2.7504    0.6104   -4.1089 H       1  LIG1        0.0000
     37 H          -3.5107    1.9709   -3.6213 H       1  LIG1        0.0000
     38 H          -2.8719    0.6706   -1.7315 H       1  LIG1        0.0000
     39 H          -1.3132    0.7345   -2.2143 H       1  LIG1        0.0000
     40 H          -1.3344    3.0576   -1.9749 H       1  LIG1        0.0000
     41 H           1.1544    3.1001    0.0154 H       1  LIG1        0.0000
     42 H           3.2429    1.9243   -0.0108 H       1  LIG1        0.0000
     43 H           3.8499   -1.1498   -0.9279 H       1  LIG1        0.0000
     44 H           4.4666   -0.0655    0.1260 H       1  LIG1        0.0000
     45 H           3.8452   -2.7024    0.7752 H       1  LIG1        0.0000
     46 H           1.9177   -2.4918    7.5084 H       1  LIG1        0.0000
     47 H           1.6107   -3.3608    9.7198 H       1  LIG1        0.0000
     48 H           1.6025   -5.1481   11.2248 H       1  LIG1        0.0000
     49 H           1.1289   -6.5760   10.5897 H       1  LIG1        0.0000
     50 H           2.7071   -6.3101   10.9144 H       1  LIG1        0.0000
     51 H           2.5352   -7.1666    8.3465 H       1  LIG1        0.0000
     52 H           3.0547   -7.5650    6.1424 H       1  LIG1        0.0000
     53 H           2.2746   -6.6240    5.0595 H       1  LIG1        0.0000
     54 H           3.8527   -6.3585    5.3846 H       1  LIG1        0.0000
     55 H           2.4840   -3.2412    1.0170 H       1  LIG1        0.0000
     56 H           2.6231   -4.8130    1.4374 H       1  LIG1        0.0000
     57 H           1.1801   -4.0589    1.5627 H       1  LIG1        0.0000
     58 H           1.2186   -1.6897   -0.0248 H       1  LIG1        0.0000
     59 H          -0.8751   -0.5230    0.0012 H       1  LIG1        0.0000
@<TRIPOS>BOND
     1     1     2    1
     2     2     3    1
     3     3     4    1
     4     4     5    1
     5     5     6    1
     6     6     7    2
     7     6     8    2
     8     6     9    1
     9     9    10   ar
    10    10    11   ar
    11    11    12   ar
    12    12    13    1
    13    13    14    1
    14    14    15   am
    15    15    16    2
    16    15    17    1
    17    17    18    1
    18    18    19    1
    19    19    20    1
    20    20    21   ar
    21    21    22   ar
    22    22    23   ar
    23    23    24    1
    24    23    25   ar
    25    25    26   ar
    26    26    20   ar
    27    26    27    1
    28    19    28    2
    29    28    29    1
    30    29    17    2
    31    29    30    1
    32    12    31   ar
    33    31    32   ar
    34    32     9   ar
    35     1    33    1
    36     1    34    1
    37     1    35    1
    38     3    36    1
    39     3    37    1
    40     4    38    1
    41     4    39    1
    42     5    40    1
    43    10    41    1
    44    11    42    1
    45    13    43    1
    46    13    44    1
    47    14    45    1
    48    21    46    1
    49    22    47    1
    50    24    48    1
    51    24    49    1
    52    24    50    1
    53    25    51    1
    54    27    52    1
    55    27    53    1
    56    27    54    1
    57    30    55    1
    58    30    56    1
    59    30    57    1
    60    31    58    1
    61    32    59    1
