@<TRIPOS>MOLECULE
*****
 59 61 0 0 0
SMALL
USER_CHARGES

@<TRIPOS>ATOM
      1 C1         -1.9920    2.5668   -5.6512 C.3     1  LIG1        0.0000
      2 O2         -1.6637    2.2670   -4.3026 O.3     1  LIG1        0.0000
      3 C3         -2.6384    1.4820   -3.6317 C.3     1  LIG1        0.0000
      4 C4         -2.1855    1.2234   -2.2039 C.3     1  LIG1        0.0000
      5 N5         -2.0208    2.5047   -1.5025 N.3     1  LIG1        0.0000
      6 S6         -1.5352    2.2275    0.0286 S.O2    1  LIG1        0.0000
      7 O7         -2.5236    1.4314    0.7090 O.2     1  LIG1        0.0000
      8 O8         -1.3738    3.4826    0.7157 O.2     1  LIG1        0.0000
      9 C9         -0.0173    1.3767    0.0106 C.3     1  LIG1        0.0000
     10 C10         1.1707    2.1003    0.0071 C.3     1  LIG1        0.0000
     11 C11         2.3816    1.4162   -0.0083 C.3     1  LIG1        0.0000
     12 C12         2.3947    0.0252   -0.0201 C.3     1  LIG1        0.0000
     13 C13         3.7226   -0.7135   -0.0371 C.3     1  LIG1        0.0000
     14 N14         4.8245    0.2594   -0.0378 N.am    1  LIG1        0.0000
     15 C15         5.3284    0.7228   -1.2245 C.2     1  LIG1        0.0000
     16 O16         4.6760    0.6366   -2.2279 O.2     1  LIG1        0.0000
     17 C17         6.6489    1.3169   -1.2680 C.2     1  LIG1        0.0000
     18 S18         7.2656    2.3518   -2.4717 S.3     1  LIG1        0.0000
     19 C19         8.7959    2.5459   -1.7526 C.2     1  LIG1        0.0000
     20 C20         9.8705    3.3529   -2.2981 C.3     1  LIG1        0.0000
     21 C21        10.6384    4.1114   -1.4200 C.3     1  LIG1        0.0000
     22 C22        11.6772    4.8983   -1.9064 C.3     1  LIG1        0.0000
     23 C23        11.9377    4.9165   -3.2729 C.3     1  LIG1        0.0000
     24 C24        13.0713    5.7731   -3.8131 C.3     1  LIG1        0.0000
     25 C25        11.1747    4.1601   -4.1568 C.3     1  LIG1        0.0000
     26 C26        10.1372    3.3754   -3.6638 C.3     1  LIG1        0.0000
     27 C27         9.3163    2.5568   -4.6472 C.3     1  LIG1        0.0000
     28 N28         8.8090    1.8443   -0.6455 N.2     1  LIG1        0.0000
     29 C29         7.6549    1.1689   -0.3630 C.2     1  LIG1        0.0000
     30 C30         7.4482    0.3024    0.8621 C.3     1  LIG1        0.0000
     31 C31         1.2021   -0.6899   -0.0165 C.3     1  LIG1        0.0000
     32 C32        -0.0139   -0.0147   -0.0012 C.3     1  LIG1        0.0000
     33 H          -1.2636    3.1191   -6.0567 H       1  LIG1        0.0000
     34 H          -2.0916    1.7160   -6.1670 H       1  LIG1        0.0000
     35 H          -2.8519    3.0765   -5.6795 H       1  LIG1        0.0000
     36 H          -2.7504    0.6104   -4.1089 H       1  LIG1        0.0000
     37 H          -3.5107    1.9709   -3.6213 H       1  LIG1        0.0000
     38 H          -2.8719    0.6706   -1.7315 H       1  LIG1        0.0000
     39 H          -1.3132    0.7345   -2.2143 H       1  LIG1        0.0000
     40 H          -1.3344    3.0576   -1.9749 H       1  LIG1        0.0000
     41 H           1.1544    3.1001    0.0154 H       1  LIG1        0.0000
     42 H           3.2429    1.9243   -0.0108 H       1  LIG1        0.0000
     43 H           3.7913   -1.2944    0.7739 H       1  LIG1        0.0000
     44 H           3.7781   -1.2806   -0.8589 H       1  LIG1        0.0000
     45 H           5.2064    0.5830    0.8279 H       1  LIG1        0.0000
     46 H          10.4435    4.0908   -0.4394 H       1  LIG1        0.0000
     47 H          12.2317    5.4458   -1.2796 H       1  LIG1        0.0000
     48 H          13.5181    6.2505   -3.0565 H       1  LIG1        0.0000
     49 H          13.7370    5.1901   -4.2789 H       1  LIG1        0.0000
     50 H          12.7046    6.4424   -4.4594 H       1  LIG1        0.0000
     51 H          11.3702    4.1803   -5.1373 H       1  LIG1        0.0000
     52 H           9.6604    2.7064   -5.5742 H       1  LIG1        0.0000
     53 H           9.3903    1.5866   -4.4167 H       1  LIG1        0.0000
     54 H           8.3582    2.8391   -4.5977 H       1  LIG1        0.0000
     55 H           6.5258   -0.0836    0.8456 H       1  LIG1        0.0000
     56 H           8.1197   -0.4387    0.8634 H       1  LIG1        0.0000
     57 H           7.5626    0.8573    1.6861 H       1  LIG1        0.0000
     58 H           1.2186   -1.6897   -0.0248 H       1  LIG1        0.0000
     59 H          -0.8751   -0.5230    0.0012 H       1  LIG1        0.0000
@<TRIPOS>BOND
     1     1     2    1
     2     2     3    1
     3     3     4    1
     4     4     5    1
     5     5     6    1
     6     6     7    2
     7     6     8    2
     8     6     9    1
     9     9    10   ar
    10    10    11   ar
    11    11    12   ar
    12    12    13    1
    13    13    14    1
    14    14    15   am
    15    15    16    2
    16    15    17    1
    17    17    18    1
    18    18    19    1
    19    19    20    1
    20    20    21   ar
    21    21    22   ar
    22    22    23   ar
    23    23    24    1
    24    23    25   ar
    25    25    26   ar
    26    26    20   ar
    27    26    27    1
    28    19    28    2
    29    28    29    1
    30    29    17    2
    31    29    30    1
    32    12    31   ar
    33    31    32   ar
    34    32     9   ar
    35     1    33    1
    36     1    34    1
    37     1    35    1
    38     3    36    1
    39     3    37    1
    40     4    38    1
    41     4    39    1
    42     5    40    1
    43    10    41    1
    44    11    42    1
    45    13    43    1
    46    13    44    1
    47    14    45    1
    48    21    46    1
    49    22    47    1
    50    24    48    1
    51    24    49    1
    52    24    50    1
    53    25    51    1
    54    27    52    1
    55    27    53    1
    56    27    54    1
    57    30    55    1
    58    30    56    1
    59    30    57    1
    60    31    58    1
    61    32    59    1
