@<TRIPOS>MOLECULE
*****
 59 61 0 0 0
SMALL
USER_CHARGES

@<TRIPOS>ATOM
      1 C1         -1.9920    2.5668   -5.6512 C.3     1  LIG1        0.0000
      2 O2         -1.6637    2.2670   -4.3026 O.3     1  LIG1        0.0000
      3 C3         -2.6384    1.4820   -3.6317 C.3     1  LIG1        0.0000
      4 C4         -2.1855    1.2234   -2.2039 C.3     1  LIG1        0.0000
      5 N5         -2.0208    2.5047   -1.5025 N.3     1  LIG1        0.0000
      6 S6         -1.5352    2.2275    0.0286 S.O2    1  LIG1        0.0000
      7 O7         -2.5236    1.4314    0.7090 O.2     1  LIG1        0.0000
      8 O8         -1.3738    3.4826    0.7157 O.2     1  LIG1        0.0000
      9 C9         -0.0173    1.3767    0.0106 C.3     1  LIG1        0.0000
     10 C10         1.1707    2.1003    0.0071 C.3     1  LIG1        0.0000
     11 C11         2.3816    1.4162   -0.0083 C.3     1  LIG1        0.0000
     12 C12         2.3947    0.0252   -0.0201 C.3     1  LIG1        0.0000
     13 C13         3.7226   -0.7135   -0.0371 C.3     1  LIG1        0.0000
     14 N14         3.4770   -2.1628   -0.0474 N.am    1  LIG1        0.0000
     15 C15         3.9557   -2.9459    0.9697 C.2     1  LIG1        0.0000
     16 O16         3.3686   -3.9435    1.2861 O.2     1  LIG1        0.0000
     17 C17         5.1707   -2.5697    1.6631 C.2     1  LIG1        0.0000
     18 S18         5.5665   -2.9013    3.2859 S.3     1  LIG1        0.0000
     19 C19         7.0850   -2.1340    3.2442 C.2     1  LIG1        0.0000
     20 C20         7.9983   -2.0442    4.3674 C.3     1  LIG1        0.0000
     21 C21         8.6861   -0.8511    4.5660 C.3     1  LIG1        0.0000
     22 C22         9.5709   -0.7278    5.6322 C.3     1  LIG1        0.0000
     23 C23         9.7576   -1.8052    6.4925 C.3     1  LIG1        0.0000
     24 C24        10.7222   -1.6791    7.6606 C.3     1  LIG1        0.0000
     25 C25         9.0727   -3.0009    6.3007 C.3     1  LIG1        0.0000
     26 C26         8.1893   -3.1175    5.2324 C.3     1  LIG1        0.0000
     27 C27         7.4515   -4.4329    5.0415 C.3     1  LIG1        0.0000
     28 N28         7.2584   -1.6565    2.0359 N.2     1  LIG1        0.0000
     29 C29         6.2322   -1.8808    1.1615 C.2     1  LIG1        0.0000
     30 C30         6.2219   -1.4223   -0.2821 C.3     1  LIG1        0.0000
     31 C31         1.2021   -0.6899   -0.0165 C.3     1  LIG1        0.0000
     32 C32        -0.0139   -0.0147   -0.0012 C.3     1  LIG1        0.0000
     33 H          -1.2636    3.1191   -6.0567 H       1  LIG1        0.0000
     34 H          -2.0916    1.7160   -6.1670 H       1  LIG1        0.0000
     35 H          -2.8519    3.0765   -5.6795 H       1  LIG1        0.0000
     36 H          -2.7504    0.6104   -4.1089 H       1  LIG1        0.0000
     37 H          -3.5107    1.9709   -3.6213 H       1  LIG1        0.0000
     38 H          -2.8719    0.6706   -1.7315 H       1  LIG1        0.0000
     39 H          -1.3132    0.7345   -2.2143 H       1  LIG1        0.0000
     40 H          -1.3344    3.0576   -1.9749 H       1  LIG1        0.0000
     41 H           1.1544    3.1001    0.0154 H       1  LIG1        0.0000
     42 H           3.2429    1.9243   -0.0108 H       1  LIG1        0.0000
     43 H           4.2364   -0.4567   -0.8557 H       1  LIG1        0.0000
     44 H           4.2496   -0.4705    0.7772 H       1  LIG1        0.0000
     45 H           2.9605   -2.5771   -0.7968 H       1  LIG1        0.0000
     46 H           8.5443   -0.0824    3.9424 H       1  LIG1        0.0000
     47 H          10.0683    0.1272    5.7790 H       1  LIG1        0.0000
     48 H          11.1301   -0.7660    7.6590 H       1  LIG1        0.0000
     49 H          10.2279   -1.8219    8.5180 H       1  LIG1        0.0000
     50 H          11.4433   -2.3664    7.5731 H       1  LIG1        0.0000
     51 H           9.2141   -3.7692    6.9249 H       1  LIG1        0.0000
     52 H           7.7221   -5.0741    5.7596 H       1  LIG1        0.0000
     53 H           6.4658   -4.2725    5.0920 H       1  LIG1        0.0000
     54 H           7.6814   -4.8173    4.1474 H       1  LIG1        0.0000
     55 H           5.3660   -1.7044   -0.7154 H       1  LIG1        0.0000
     56 H           6.3001   -0.4259   -0.3159 H       1  LIG1        0.0000
     57 H           6.9930   -1.8338   -0.7680 H       1  LIG1        0.0000
     58 H           1.2186   -1.6897   -0.0248 H       1  LIG1        0.0000
     59 H          -0.8751   -0.5230    0.0012 H       1  LIG1        0.0000
@<TRIPOS>BOND
     1     1     2    1
     2     2     3    1
     3     3     4    1
     4     4     5    1
     5     5     6    1
     6     6     7    2
     7     6     8    2
     8     6     9    1
     9     9    10   ar
    10    10    11   ar
    11    11    12   ar
    12    12    13    1
    13    13    14    1
    14    14    15   am
    15    15    16    2
    16    15    17    1
    17    17    18    1
    18    18    19    1
    19    19    20    1
    20    20    21   ar
    21    21    22   ar
    22    22    23   ar
    23    23    24    1
    24    23    25   ar
    25    25    26   ar
    26    26    20   ar
    27    26    27    1
    28    19    28    2
    29    28    29    1
    30    29    17    2
    31    29    30    1
    32    12    31   ar
    33    31    32   ar
    34    32     9   ar
    35     1    33    1
    36     1    34    1
    37     1    35    1
    38     3    36    1
    39     3    37    1
    40     4    38    1
    41     4    39    1
    42     5    40    1
    43    10    41    1
    44    11    42    1
    45    13    43    1
    46    13    44    1
    47    14    45    1
    48    21    46    1
    49    22    47    1
    50    24    48    1
    51    24    49    1
    52    24    50    1
    53    25    51    1
    54    27    52    1
    55    27    53    1
    56    27    54    1
    57    30    55    1
    58    30    56    1
    59    30    57    1
    60    31    58    1
    61    32    59    1
