@<TRIPOS>MOLECULE
*****
 31 33 0 0 0
SMALL
USER_CHARGES

@<TRIPOS>ATOM
      1 C1         -0.4800    3.4782    1.9570 C.3     1  LIG1        0.0000
      2 C2         -1.5469    3.1013    0.9411 C.ar    1  LIG1        0.0000
      3 N3         -2.7366    3.7260    0.9122 N.ar    1  LIG1        0.0000
      4 C4         -3.6990    3.4149    0.0266 C.ar    1  LIG1        0.0000
      5 N5         -4.9588    3.9134   -0.1811 N.2     1  LIG1        0.0000
      6 C6         -5.5441    3.2931   -1.1757 C.2     1  LIG1        0.0000
      7 N7         -4.6533    2.3675   -1.6292 N.pl3   1  LIG1        0.0000
      8 C8         -3.4993    2.4191   -0.8975 C.ar    1  LIG1        0.0000
      9 C9         -2.2739    1.7601   -0.8936 C.ar    1  LIG1        0.0000
     10 C10        -1.2832    2.0865    0.0255 C.ar    1  LIG1        0.0000
     11 C11        -0.0173    1.3776    0.0102 C.ar    1  LIG1        0.0000
     12 C12         1.1712    2.1003    0.0072 C.ar    1  LIG1        0.0000
     13 C13         2.3824    1.4162   -0.0077 C.ar    1  LIG1        0.0000
     14 C14         2.3953    0.0257   -0.0205 C.ar    1  LIG1        0.0000
     15 C15         3.7226   -0.7135   -0.0371 C.3     1  LIG1        0.0000
     16 O16         4.1460   -0.9560    1.2964 O.3     1  LIG1        0.0000
     17 C17         1.2016   -0.6895   -0.0163 C.ar    1  LIG1        0.0000
     18 C18        -0.0137   -0.0137   -0.0015 C.ar    1  LIG1        0.0000
     19 H          -4.8198    1.7395   -2.3894 H       1  LIG1        0.0000
     20 H           0.3281    2.9054    1.8198 H       1  LIG1        0.0000
     21 H          -0.2313    4.4395    1.8380 H       1  LIG1        0.0000
     22 H          -0.8352    3.3377    2.8811 H       1  LIG1        0.0000
     23 H          -6.4627    3.4650   -1.5314 H       1  LIG1        0.0000
     24 H          -2.1027    1.0383   -1.5642 H       1  LIG1        0.0000
     25 H           1.1552    3.1001    0.0158 H       1  LIG1        0.0000
     26 H           3.2436    1.9243   -0.0092 H       1  LIG1        0.0000
     27 H           3.6130   -1.5847   -0.5157 H       1  LIG1        0.0000
     28 H           4.4076   -0.1580   -0.5086 H       1  LIG1        0.0000
     29 H           5.0196   -1.4425    1.2854 H       1  LIG1        0.0000
     30 H           1.2177   -1.6893   -0.0240 H       1  LIG1        0.0000
     31 H          -0.8750   -0.5218    0.0008 H       1  LIG1        0.0000
@<TRIPOS>BOND
     1     1     2    1
     2     2     3   ar
     3     3     4   ar
     4     4     5    1
     5     5     6    2
     6     6     7    1
     7     7     8    1
     8     8     4   ar
     9     8     9   ar
    10     9    10   ar
    11    10     2   ar
    12    10    11    1
    13    11    12   ar
    14    12    13   ar
    15    13    14   ar
    16    14    15    1
    17    15    16    1
    18    14    17   ar
    19    17    18   ar
    20    18    11   ar
    21     7    19    1
    22     1    20    1
    23     1    21    1
    24     1    22    1
    25     6    23    1
    26     9    24    1
    27    12    25    1
    28    13    26    1
    29    15    27    1
    30    15    28    1
    31    16    29    1
    32    17    30    1
    33    18    31    1
