@<TRIPOS>MOLECULE

  27   28
SMALL
USER_CHARGES
@<TRIPOS>ATOM
   1 C1          -2.7427     0.8792     0.0289 C.3          1    LIG   0.0000
   2 S2          -1.5352     2.2275     0.0286 S.3          1    LIG   0.0000
   3 C3          -0.0171     1.3774     0.0100 C.ar         1    LIG   0.0000
   4 C4           1.1715     2.1002     0.0054 C.ar         1    LIG   0.0000
   5 C5           2.3820     1.4153    -0.0091 C.ar         1    LIG   0.0000
   6 C6           2.3943     0.0250    -0.0203 C.ar         1    LIG   0.0000
   7 C7           3.7226    -0.7135    -0.0371 C.3          1    LIG   0.0000
   8 O8           3.6449    -1.8467     0.8150 O.3          1    LIG   0.0000
   9 C9           4.8233     0.2128     0.4512 C.2          1    LIG   0.0000
  10 C10          5.0807     0.4933     1.7588 C.2          1    LIG   0.0000
  11 C11          6.1729     1.3901     1.7314 C.2          1    LIG   0.0000
  12 C12          6.4860     1.5826     0.4198 C.2          1    LIG   0.0000
  13 O13          5.6677     0.8651    -0.3159 O.2          1    LIG   0.0000
  14 C14          1.2013    -0.6897    -0.0158 C.ar         1    LIG   0.0000
  15 C15         -0.0143    -0.0135    -0.0014 C.ar         1    LIG   0.0000
  16 H            3.9267    -1.0111    -0.9697 H            1    LIG   0.0000
  17 H           -3.6674     1.2598     0.0392 H            1    LIG   0.0000
  18 H           -2.6207     0.3222    -0.7927 H            1    LIG   0.0000
  19 H           -2.6073     0.3105     0.8402 H            1    LIG   0.0000
  20 H            1.1558     3.1000     0.0125 H            1    LIG   0.0000
  21 H            3.2435     1.9229    -0.0114 H            1    LIG   0.0000
  22 H            4.5188    -2.3326     0.8040 H            1    LIG   0.0000
  23 H            4.6015     0.1416     2.5629 H            1    LIG   0.0000
  24 H            6.6271     1.8027     2.5210 H            1    LIG   0.0000
  25 H            7.2166     2.1716     0.0747 H            1    LIG   0.0000
  26 H            1.2173    -1.6895    -0.0228 H            1    LIG   0.0000
  27 H           -0.8758    -0.5213     0.0007 H            1    LIG   0.0000
@<TRIPOS>BOND
   1        1        2 1
   2        2        3 1
   3        3        4 ar
   4        4        5 ar
   5        5        6 ar
   6        6        7 1
   7        7        8 1
   8        7        9 1
   9        9       10 2
  10       10       11 1
  11       11       12 2
  12       12       13 1
  13       13        9 1
  14        6       14 ar
  15       14       15 ar
  16       15        3 ar
  17        7       16 1
  18        1       17 1
  19        1       18 1
  20        1       19 1
  21        4       20 1
  22        5       21 1
  23        8       22 1
  24       10       23 1
  25       11       24 1
  26       12       25 1
  27       14       26 1
  28       15       27 1

@<TRIPOS>MOLECULE

  27   28
SMALL
USER_CHARGES
@<TRIPOS>ATOM
   1 C1          -2.7427     0.8792     0.0289 C.3          1    LIG   0.0000
   2 S2          -1.5352     2.2275     0.0286 S.3          1    LIG   0.0000
   3 C3          -0.0171     1.3774     0.0100 C.ar         1    LIG   0.0000
   4 C4           1.1715     2.1002     0.0054 C.ar         1    LIG   0.0000
   5 C5           2.3820     1.4153    -0.0091 C.ar         1    LIG   0.0000
   6 C6           2.3943     0.0250    -0.0203 C.ar         1    LIG   0.0000
   7 C7           3.7226    -0.7135    -0.0371 C.3          1    LIG   0.0000
   8 O8           3.6449    -1.8467     0.8150 O.3          1    LIG   0.0000
   9 C9           4.8233     0.2128     0.4512 C.2          1    LIG   0.0000
  10 C10          5.8111     0.7278    -0.3323 C.2          1    LIG   0.0000
  11 C11          6.5941     1.5178     0.5398 C.2          1    LIG   0.0000
  12 C12          6.0248     1.4171     1.7732 C.2          1    LIG   0.0000
  13 O13          4.9712     0.6374     1.6860 O.2          1    LIG   0.0000
  14 C14          1.2013    -0.6897    -0.0158 C.ar         1    LIG   0.0000
  15 C15         -0.0143    -0.0135    -0.0014 C.ar         1    LIG   0.0000
  16 H            3.9267    -1.0111    -0.9697 H            1    LIG   0.0000
  17 H           -3.6674     1.2598     0.0392 H            1    LIG   0.0000
  18 H           -2.6207     0.3222    -0.7927 H            1    LIG   0.0000
  19 H           -2.6073     0.3105     0.8402 H            1    LIG   0.0000
  20 H            1.1558     3.1000     0.0125 H            1    LIG   0.0000
  21 H            3.2435     1.9229    -0.0114 H            1    LIG   0.0000
  22 H            4.5188    -2.3326     0.8040 H            1    LIG   0.0000
  23 H            5.9518     0.5794    -1.3112 H            1    LIG   0.0000
  24 H            7.4073     2.0473     0.2984 H            1    LIG   0.0000
  25 H            6.3540     1.8622     2.6059 H            1    LIG   0.0000
  26 H            1.2173    -1.6895    -0.0228 H            1    LIG   0.0000
  27 H           -0.8758    -0.5213     0.0007 H            1    LIG   0.0000
@<TRIPOS>BOND
   1        1        2 1
   2        2        3 1
   3        3        4 ar
   4        4        5 ar
   5        5        6 ar
   6        6        7 1
   7        7        8 1
   8        7        9 1
   9        9       10 2
  10       10       11 1
  11       11       12 2
  12       12       13 1
  13       13        9 1
  14        6       14 ar
  15       14       15 ar
  16       15        3 ar
  17        7       16 1
  18        1       17 1
  19        1       18 1
  20        1       19 1
  21        4       20 1
  22        5       21 1
  23        8       22 1
  24       10       23 1
  25       11       24 1
  26       12       25 1
  27       14       26 1
  28       15       27 1

@<TRIPOS>MOLECULE

  27   28
SMALL
USER_CHARGES
@<TRIPOS>ATOM
   1 C1          -2.7427     0.8792     0.0289 C.3          1    LIG   0.0000
   2 S2          -1.5352     2.2275     0.0286 S.3          1    LIG   0.0000
   3 C3          -0.0171     1.3774     0.0100 C.ar         1    LIG   0.0000
   4 C4           1.1715     2.1002     0.0054 C.ar         1    LIG   0.0000
   5 C5           2.3820     1.4153    -0.0091 C.ar         1    LIG   0.0000
   6 C6           2.3943     0.0250    -0.0203 C.ar         1    LIG   0.0000
   7 C7           3.7226    -0.7135    -0.0371 C.3          1    LIG   0.0000
   8 O8           4.5460    -0.1832    -1.0653 O.3          1    LIG   0.0000
   9 C9           3.4776    -2.1904    -0.2957 C.2          1    LIG   0.0000
  10 C10          3.2430    -2.7371    -1.5208 C.2          1    LIG   0.0000
  11 C11          3.0718    -4.1188    -1.2770 C.2          1    LIG   0.0000
  12 C12          3.2121    -4.2976     0.0660 C.2          1    LIG   0.0000
  13 O13          3.4570    -3.1322     0.6206 O.2          1    LIG   0.0000
  14 C14          1.2013    -0.6897    -0.0158 C.ar         1    LIG   0.0000
  15 C15         -0.0143    -0.0135    -0.0014 C.ar         1    LIG   0.0000
  16 H            4.1779    -0.6007     0.8460 H            1    LIG   0.0000
  17 H           -3.6674     1.2598     0.0392 H            1    LIG   0.0000
  18 H           -2.6207     0.3222    -0.7927 H            1    LIG   0.0000
  19 H           -2.6073     0.3105     0.8402 H            1    LIG   0.0000
  20 H            1.1558     3.1000     0.0125 H            1    LIG   0.0000
  21 H            3.2435     1.9229    -0.0114 H            1    LIG   0.0000
  22 H            5.4200    -0.6691    -1.0764 H            1    LIG   0.0000
  23 H            3.2010    -2.2642    -2.4009 H            1    LIG   0.0000
  24 H            2.8843    -4.8269    -1.9578 H            1    LIG   0.0000
  25 H            3.1405    -5.1702     0.5491 H            1    LIG   0.0000
  26 H            1.2173    -1.6895    -0.0228 H            1    LIG   0.0000
  27 H           -0.8758    -0.5213     0.0007 H            1    LIG   0.0000
@<TRIPOS>BOND
   1        1        2 1
   2        2        3 1
   3        3        4 ar
   4        4        5 ar
   5        5        6 ar
   6        6        7 1
   7        7        8 1
   8        7        9 1
   9        9       10 2
  10       10       11 1
  11       11       12 2
  12       12       13 1
  13       13        9 1
  14        6       14 ar
  15       14       15 ar
  16       15        3 ar
  17        7       16 1
  18        1       17 1
  19        1       18 1
  20        1       19 1
  21        4       20 1
  22        5       21 1
  23        8       22 1
  24       10       23 1
  25       11       24 1
  26       12       25 1
  27       14       26 1
  28       15       27 1

@<TRIPOS>MOLECULE

  27   28
SMALL
USER_CHARGES
@<TRIPOS>ATOM
   1 C1          -2.7427     0.8792     0.0289 C.3          1    LIG   0.0000
   2 S2          -1.5352     2.2275     0.0286 S.3          1    LIG   0.0000
   3 C3          -0.0171     1.3774     0.0100 C.ar         1    LIG   0.0000
   4 C4           1.1715     2.1002     0.0054 C.ar         1    LIG   0.0000
   5 C5           2.3820     1.4153    -0.0091 C.ar         1    LIG   0.0000
   6 C6           2.3943     0.0250    -0.0203 C.ar         1    LIG   0.0000
   7 C7           3.7226    -0.7135    -0.0371 C.3          1    LIG   0.0000
   8 O8           4.5460    -0.1832    -1.0653 O.3          1    LIG   0.0000
   9 C9           3.4776    -2.1904    -0.2957 C.2          1    LIG   0.0000
  10 C10          3.6504    -3.1801     0.6237 C.2          1    LIG   0.0000
  11 C11          3.3115    -4.3724    -0.0556 C.2          1    LIG   0.0000
  12 C12          2.9662    -4.0136    -1.3234 C.2          1    LIG   0.0000
  13 O13          3.0712    -2.7087    -1.4329 O.2          1    LIG   0.0000
  14 C14          1.2013    -0.6897    -0.0158 C.ar         1    LIG   0.0000
  15 C15         -0.0143    -0.0135    -0.0014 C.ar         1    LIG   0.0000
  16 H            4.1779    -0.6007     0.8460 H            1    LIG   0.0000
  17 H           -3.6674     1.2598     0.0392 H            1    LIG   0.0000
  18 H           -2.6207     0.3222    -0.7927 H            1    LIG   0.0000
  19 H           -2.6073     0.3105     0.8402 H            1    LIG   0.0000
  20 H            1.1558     3.1000     0.0125 H            1    LIG   0.0000
  21 H            3.2435     1.9229    -0.0114 H            1    LIG   0.0000
  22 H            5.4200    -0.6691    -1.0764 H            1    LIG   0.0000
  23 H            3.9513    -3.0843     1.5726 H            1    LIG   0.0000
  24 H            3.3231    -5.2987     0.3211 H            1    LIG   0.0000
  25 H            2.6804    -4.6389    -2.0495 H            1    LIG   0.0000
  26 H            1.2173    -1.6895    -0.0228 H            1    LIG   0.0000
  27 H           -0.8758    -0.5213     0.0007 H            1    LIG   0.0000
@<TRIPOS>BOND
   1        1        2 1
   2        2        3 1
   3        3        4 ar
   4        4        5 ar
   5        5        6 ar
   6        6        7 1
   7        7        8 1
   8        7        9 1
   9        9       10 2
  10       10       11 1
  11       11       12 2
  12       12       13 1
  13       13        9 1
  14        6       14 ar
  15       14       15 ar
  16       15        3 ar
  17        7       16 1
  18        1       17 1
  19        1       18 1
  20        1       19 1
  21        4       20 1
  22        5       21 1
  23        8       22 1
  24       10       23 1
  25       11       24 1
  26       12       25 1
  27       14       26 1
  28       15       27 1

@<TRIPOS>MOLECULE

  27   28
SMALL
USER_CHARGES
@<TRIPOS>ATOM
   1 C1          -1.0166     3.9616     0.0368 C.3          1    LIG   0.0000
   2 S2          -1.5352     2.2275     0.0286 S.3          1    LIG   0.0000
   3 C3          -0.0171     1.3774     0.0100 C.ar         1    LIG   0.0000
   4 C4           1.1715     2.1002     0.0054 C.ar         1    LIG   0.0000
   5 C5           2.3820     1.4153    -0.0091 C.ar         1    LIG   0.0000
   6 C6           2.3943     0.0250    -0.0203 C.ar         1    LIG   0.0000
   7 C7           3.7226    -0.7135    -0.0371 C.3          1    LIG   0.0000
   8 O8           4.7869     0.2266    -0.0383 O.3          1    LIG   0.0000
   9 C9           3.8069    -1.5755    -1.2853 C.2          1    LIG   0.0000
  10 C10          4.9628    -2.0548    -1.8229 C.2          1    LIG   0.0000
  11 C11          4.5588    -2.7896    -2.9607 C.2          1    LIG   0.0000
  12 C12          3.2014    -2.6954    -3.0234 C.2          1    LIG   0.0000
  13 O13          2.7845    -1.9704    -2.0103 O.2          1    LIG   0.0000
  14 C14          1.2013    -0.6897    -0.0158 C.ar         1    LIG   0.0000
  15 C15         -0.0143    -0.0135    -0.0014 C.ar         1    LIG   0.0000
  16 H            3.7915    -1.2940     0.7742 H            1    LIG   0.0000
  17 H           -1.8244     4.5510     0.0477 H            1    LIG   0.0000
  18 H           -0.4628     4.1400     0.8501 H            1    LIG   0.0000
  19 H           -0.4762     4.1517    -0.7828 H            1    LIG   0.0000
  20 H            1.1558     3.1000     0.0125 H            1    LIG   0.0000
  21 H            3.2435     1.9229    -0.0114 H            1    LIG   0.0000
  22 H            5.6608    -0.2594    -0.0494 H            1    LIG   0.0000
  23 H            5.8943    -1.9169    -1.4861 H            1    LIG   0.0000
  24 H            5.1535    -3.2825    -3.5958 H            1    LIG   0.0000
  25 H            2.6194    -3.1090    -3.7236 H            1    LIG   0.0000
  26 H            1.2173    -1.6895    -0.0228 H            1    LIG   0.0000
  27 H           -0.8758    -0.5213     0.0007 H            1    LIG   0.0000
@<TRIPOS>BOND
   1        1        2 1
   2        2        3 1
   3        3        4 ar
   4        4        5 ar
   5        5        6 ar
   6        6        7 1
   7        7        8 1
   8        7        9 1
   9        9       10 2
  10       10       11 1
  11       11       12 2
  12       12       13 1
  13       13        9 1
  14        6       14 ar
  15       14       15 ar
  16       15        3 ar
  17        7       16 1
  18        1       17 1
  19        1       18 1
  20        1       19 1
  21        4       20 1
  22        5       21 1
  23        8       22 1
  24       10       23 1
  25       11       24 1
  26       12       25 1
  27       14       26 1
  28       15       27 1

@<TRIPOS>MOLECULE

  27   28
SMALL
USER_CHARGES
@<TRIPOS>ATOM
   1 C1          -1.0166     3.9616     0.0368 C.3          1    LIG   0.0000
   2 S2          -1.5352     2.2275     0.0286 S.3          1    LIG   0.0000
   3 C3          -0.0171     1.3774     0.0100 C.ar         1    LIG   0.0000
   4 C4           1.1715     2.1002     0.0054 C.ar         1    LIG   0.0000
   5 C5           2.3820     1.4153    -0.0091 C.ar         1    LIG   0.0000
   6 C6           2.3943     0.0250    -0.0203 C.ar         1    LIG   0.0000
   7 C7           3.7226    -0.7135    -0.0371 C.3          1    LIG   0.0000
   8 O8           4.7869     0.2266    -0.0383 O.3          1    LIG   0.0000
   9 C9           3.8069    -1.5755    -1.2853 C.2          1    LIG   0.0000
  10 C10          2.7697    -1.8198    -2.1334 C.2          1    LIG   0.0000
  11 C11          3.3068    -2.6619    -3.1336 C.2          1    LIG   0.0000
  12 C12          4.6155    -2.8618    -2.8129 C.2          1    LIG   0.0000
  13 O13          4.8828    -2.1988    -1.7108 O.2          1    LIG   0.0000
  14 C14          1.2013    -0.6897    -0.0158 C.ar         1    LIG   0.0000
  15 C15         -0.0143    -0.0135    -0.0014 C.ar         1    LIG   0.0000
  16 H            3.7915    -1.2940     0.7742 H            1    LIG   0.0000
  17 H           -1.8244     4.5510     0.0477 H            1    LIG   0.0000
  18 H           -0.4628     4.1400     0.8501 H            1    LIG   0.0000
  19 H           -0.4762     4.1517    -0.7828 H            1    LIG   0.0000
  20 H            1.1558     3.1000     0.0125 H            1    LIG   0.0000
  21 H            3.2435     1.9229    -0.0114 H            1    LIG   0.0000
  22 H            5.6608    -0.2594    -0.0494 H            1    LIG   0.0000
  23 H            1.8325    -1.4780    -2.0638 H            1    LIG   0.0000
  24 H            2.8208    -3.0375    -3.9227 H            1    LIG   0.0000
  25 H            5.2643    -3.4200    -3.3300 H            1    LIG   0.0000
  26 H            1.2173    -1.6895    -0.0228 H            1    LIG   0.0000
  27 H           -0.8758    -0.5213     0.0007 H            1    LIG   0.0000
@<TRIPOS>BOND
   1        1        2 1
   2        2        3 1
   3        3        4 ar
   4        4        5 ar
   5        5        6 ar
   6        6        7 1
   7        7        8 1
   8        7        9 1
   9        9       10 2
  10       10       11 1
  11       11       12 2
  12       12       13 1
  13       13        9 1
  14        6       14 ar
  15       14       15 ar
  16       15        3 ar
  17        7       16 1
  18        1       17 1
  19        1       18 1
  20        1       19 1
  21        4       20 1
  22        5       21 1
  23        8       22 1
  24       10       23 1
  25       11       24 1
  26       12       25 1
  27       14       26 1
  28       15       27 1

@<TRIPOS>MOLECULE

  27   28
SMALL
USER_CHARGES
@<TRIPOS>ATOM
   1 C1          -1.0166     3.9616     0.0368 C.3          1    LIG   0.0000
   2 S2          -1.5352     2.2275     0.0286 S.3          1    LIG   0.0000
   3 C3          -0.0171     1.3774     0.0100 C.ar         1    LIG   0.0000
   4 C4           1.1715     2.1002     0.0054 C.ar         1    LIG   0.0000
   5 C5           2.3820     1.4153    -0.0091 C.ar         1    LIG   0.0000
   6 C6           2.3943     0.0250    -0.0203 C.ar         1    LIG   0.0000
   7 C7           3.7226    -0.7135    -0.0371 C.3          1    LIG   0.0000
   8 O8           4.0124    -1.1361    -1.3614 O.3          1    LIG   0.0000
   9 C9           3.6395    -1.9259     0.8746 C.2          1    LIG   0.0000
  10 C10          4.4678    -3.0051     0.8111 C.2          1    LIG   0.0000
  11 C11          4.0185    -3.8706     1.8342 C.2          1    LIG   0.0000
  12 C12          2.9601    -3.2534     2.4295 C.2          1    LIG   0.0000
  13 O13          2.7629    -2.0969     1.8386 O.2          1    LIG   0.0000
  14 C14          1.2013    -0.6897    -0.0158 C.ar         1    LIG   0.0000
  15 C15         -0.0143    -0.0135    -0.0014 C.ar         1    LIG   0.0000
  16 H            4.4471    -0.1038     0.2843 H            1    LIG   0.0000
  17 H           -1.8244     4.5510     0.0477 H            1    LIG   0.0000
  18 H           -0.4628     4.1400     0.8501 H            1    LIG   0.0000
  19 H           -0.4762     4.1517    -0.7828 H            1    LIG   0.0000
  20 H            1.1558     3.1000     0.0125 H            1    LIG   0.0000
  21 H            3.2435     1.9229    -0.0114 H            1    LIG   0.0000
  22 H            4.8864    -1.6220    -1.3725 H            1    LIG   0.0000
  23 H            5.2281    -3.1529     0.1786 H            1    LIG   0.0000
  24 H            4.4026    -4.7622     2.0742 H            1    LIG   0.0000
  25 H            2.4231    -3.6196     3.1895 H            1    LIG   0.0000
  26 H            1.2173    -1.6895    -0.0228 H            1    LIG   0.0000
  27 H           -0.8758    -0.5213     0.0007 H            1    LIG   0.0000
@<TRIPOS>BOND
   1        1        2 1
   2        2        3 1
   3        3        4 ar
   4        4        5 ar
   5        5        6 ar
   6        6        7 1
   7        7        8 1
   8        7        9 1
   9        9       10 2
  10       10       11 1
  11       11       12 2
  12       12       13 1
  13       13        9 1
  14        6       14 ar
  15       14       15 ar
  16       15        3 ar
  17        7       16 1
  18        1       17 1
  19        1       18 1
  20        1       19 1
  21        4       20 1
  22        5       21 1
  23        8       22 1
  24       10       23 1
  25       11       24 1
  26       12       25 1
  27       14       26 1
  28       15       27 1

@<TRIPOS>MOLECULE

  27   28
SMALL
USER_CHARGES
@<TRIPOS>ATOM
   1 C1          -2.7427     0.8792     0.0289 C.3          1    LIG   0.0000
   2 S2          -1.5352     2.2275     0.0286 S.3          1    LIG   0.0000
   3 C3          -0.0171     1.3774     0.0100 C.ar         1    LIG   0.0000
   4 C4           1.1715     2.1002     0.0054 C.ar         1    LIG   0.0000
   5 C5           2.3820     1.4153    -0.0091 C.ar         1    LIG   0.0000
   6 C6           2.3943     0.0250    -0.0203 C.ar         1    LIG   0.0000
   7 C7           3.7226    -0.7135    -0.0371 C.3          1    LIG   0.0000
   8 O8           4.0124    -1.1361    -1.3614 O.3          1    LIG   0.0000
   9 C9           3.6395    -1.9259     0.8746 C.2          1    LIG   0.0000
  10 C10          2.6180    -2.1809     1.7386 C.2          1    LIG   0.0000
  11 C11          2.9678    -3.3969     2.3684 C.2          1    LIG   0.0000
  12 C12          4.1653    -3.7775     1.8424 C.2          1    LIG   0.0000
  13 O13          4.5357    -2.8838     0.9538 O.2          1    LIG   0.0000
  14 C14          1.2013    -0.6897    -0.0158 C.ar         1    LIG   0.0000
  15 C15         -0.0143    -0.0135    -0.0014 C.ar         1    LIG   0.0000
  16 H            4.4471    -0.1038     0.2843 H            1    LIG   0.0000
  17 H           -3.6674     1.2598     0.0392 H            1    LIG   0.0000
  18 H           -2.6207     0.3222    -0.7927 H            1    LIG   0.0000
  19 H           -2.6073     0.3105     0.8402 H            1    LIG   0.0000
  20 H            1.1558     3.1000     0.0125 H            1    LIG   0.0000
  21 H            3.2435     1.9229    -0.0114 H            1    LIG   0.0000
  22 H            4.8864    -1.6220    -1.3725 H            1    LIG   0.0000
  23 H            1.7991    -1.6282     1.8935 H            1    LIG   0.0000
  24 H            2.4392    -3.8830     3.0643 H            1    LIG   0.0000
  25 H            4.6769    -4.5999     2.0912 H            1    LIG   0.0000
  26 H            1.2173    -1.6895    -0.0228 H            1    LIG   0.0000
  27 H           -0.8758    -0.5213     0.0007 H            1    LIG   0.0000
@<TRIPOS>BOND
   1        1        2 1
   2        2        3 1
   3        3        4 ar
   4        4        5 ar
   5        5        6 ar
   6        6        7 1
   7        7        8 1
   8        7        9 1
   9        9       10 2
  10       10       11 1
  11       11       12 2
  12       12       13 1
  13       13        9 1
  14        6       14 ar
  15       14       15 ar
  16       15        3 ar
  17        7       16 1
  18        1       17 1
  19        1       18 1
  20        1       19 1
  21        4       20 1
  22        5       21 1
  23        8       22 1
  24       10       23 1
  25       11       24 1
  26       12       25 1
  27       14       26 1
  28       15       27 1

@<TRIPOS>MOLECULE

  27   28
SMALL
USER_CHARGES
@<TRIPOS>ATOM
   1 C1          -1.8652     2.4077     1.7991 C.3          1    LIG   0.0000
   2 S2          -1.5352     2.2275     0.0286 S.3          1    LIG   0.0000
   3 C3          -0.0171     1.3774     0.0100 C.ar         1    LIG   0.0000
   4 C4           1.1715     2.1002     0.0054 C.ar         1    LIG   0.0000
   5 C5           2.3820     1.4153    -0.0091 C.ar         1    LIG   0.0000
   6 C6           2.3943     0.0250    -0.0203 C.ar         1    LIG   0.0000
   7 C7           3.7226    -0.7135    -0.0371 C.3          1    LIG   0.0000
   8 O8           3.6308    -1.8329    -0.9060 O.3          1    LIG   0.0000
   9 C9           4.0559    -1.1882     1.3670 C.2          1    LIG   0.0000
  10 C10          3.5314    -2.2976     1.9580 C.2          1    LIG   0.0000
  11 C11          4.1188    -2.3386     3.2429 C.2          1    LIG   0.0000
  12 C12          4.9435    -1.2579     3.3289 C.2          1    LIG   0.0000
  13 O13          4.8869    -0.5964     2.1953 O.2          1    LIG   0.0000
  14 C14          1.2013    -0.6897    -0.0158 C.ar         1    LIG   0.0000
  15 C15         -0.0143    -0.0135    -0.0014 C.ar         1    LIG   0.0000
  16 H            4.4418    -0.0986    -0.3606 H            1    LIG   0.0000
  17 H           -2.7304     2.8919     1.9294 H            1    LIG   0.0000
  18 H           -1.9226     1.5030     2.2213 H            1    LIG   0.0000
  19 H           -1.1248     2.9278     2.2249 H            1    LIG   0.0000
  20 H            1.1558     3.1000     0.0125 H            1    LIG   0.0000
  21 H            3.2435     1.9229    -0.0114 H            1    LIG   0.0000
  22 H            4.5047    -2.3188    -0.9170 H            1    LIG   0.0000
  23 H            2.8742    -2.9424     1.5679 H            1    LIG   0.0000
  24 H            3.9600    -3.0268     3.9508 H            1    LIG   0.0000
  25 H            5.4991    -1.0095     4.1223 H            1    LIG   0.0000
  26 H            1.2173    -1.6895    -0.0228 H            1    LIG   0.0000
  27 H           -0.8758    -0.5213     0.0007 H            1    LIG   0.0000
@<TRIPOS>BOND
   1        1        2 1
   2        2        3 1
   3        3        4 ar
   4        4        5 ar
   5        5        6 ar
   6        6        7 1
   7        7        8 1
   8        7        9 1
   9        9       10 2
  10       10       11 1
  11       11       12 2
  12       12       13 1
  13       13        9 1
  14        6       14 ar
  15       14       15 ar
  16       15        3 ar
  17        7       16 1
  18        1       17 1
  19        1       18 1
  20        1       19 1
  21        4       20 1
  22        5       21 1
  23        8       22 1
  24       10       23 1
  25       11       24 1
  26       12       25 1
  27       14       26 1
  28       15       27 1

@<TRIPOS>MOLECULE

  27   28
SMALL
USER_CHARGES
@<TRIPOS>ATOM
   1 C1          -2.7427     0.8792     0.0289 C.3          1    LIG   0.0000
   2 S2          -1.5352     2.2275     0.0286 S.3          1    LIG   0.0000
   3 C3          -0.0171     1.3774     0.0100 C.ar         1    LIG   0.0000
   4 C4           1.1715     2.1002     0.0054 C.ar         1    LIG   0.0000
   5 C5           2.3820     1.4153    -0.0091 C.ar         1    LIG   0.0000
   6 C6           2.3943     0.0250    -0.0203 C.ar         1    LIG   0.0000
   7 C7           3.7226    -0.7135    -0.0371 C.3          1    LIG   0.0000
   8 O8           3.6308    -1.8329    -0.9060 O.3          1    LIG   0.0000
   9 C9           4.0559    -1.1882     1.3670 C.2          1    LIG   0.0000
  10 C10          5.0569    -0.6849     2.1412 C.2          1    LIG   0.0000
  11 C11          4.9941    -1.4236     3.3445 C.2          1    LIG   0.0000
  12 C12          3.9702    -2.3109     3.2039 C.2          1    LIG   0.0000
  13 O13          3.4297    -2.1425     2.0184 O.2          1    LIG   0.0000
  14 C14          1.2013    -0.6897    -0.0158 C.ar         1    LIG   0.0000
  15 C15         -0.0143    -0.0135    -0.0014 C.ar         1    LIG   0.0000
  16 H            4.4418    -0.0986    -0.3606 H            1    LIG   0.0000
  17 H           -3.6674     1.2598     0.0392 H            1    LIG   0.0000
  18 H           -2.6207     0.3222    -0.7927 H            1    LIG   0.0000
  19 H           -2.6073     0.3105     0.8402 H            1    LIG   0.0000
  20 H            1.1558     3.1000     0.0125 H            1    LIG   0.0000
  21 H            3.2435     1.9229    -0.0114 H            1    LIG   0.0000
  22 H            4.5047    -2.3188    -0.9170 H            1    LIG   0.0000
  23 H            5.6969     0.0476     1.9089 H            1    LIG   0.0000
  24 H            5.5860    -1.3159     4.1434 H            1    LIG   0.0000
  25 H            3.6786    -2.9788     3.8886 H            1    LIG   0.0000
  26 H            1.2173    -1.6895    -0.0228 H            1    LIG   0.0000
  27 H           -0.8758    -0.5213     0.0007 H            1    LIG   0.0000
@<TRIPOS>BOND
   1        1        2 1
   2        2        3 1
   3        3        4 ar
   4        4        5 ar
   5        5        6 ar
   6        6        7 1
   7        7        8 1
   8        7        9 1
   9        9       10 2
  10       10       11 1
  11       11       12 2
  12       12       13 1
  13       13        9 1
  14        6       14 ar
  15       14       15 ar
  16       15        3 ar
  17        7       16 1
  18        1       17 1
  19        1       18 1
  20        1       19 1
  21        4       20 1
  22        5       21 1
  23        8       22 1
  24       10       23 1
  25       11       24 1
  26       12       25 1
  27       14       26 1
  28       15       27 1

@<TRIPOS>MOLECULE

  27   28
SMALL
USER_CHARGES
@<TRIPOS>ATOM
   1 C1          -1.0166     3.9616     0.0368 C.3          1    LIG   0.0000
   2 S2          -1.5352     2.2275     0.0286 S.3          1    LIG   0.0000
   3 C3          -0.0171     1.3774     0.0100 C.ar         1    LIG   0.0000
   4 C4           1.1715     2.1002     0.0054 C.ar         1    LIG   0.0000
   5 C5           2.3820     1.4153    -0.0091 C.ar         1    LIG   0.0000
   6 C6           2.3943     0.0250    -0.0203 C.ar         1    LIG   0.0000
   7 C7           3.7226    -0.7135    -0.0371 C.3          1    LIG   0.0000
   8 O8           3.6308    -1.8329    -0.9060 O.3          1    LIG   0.0000
   9 C9           4.0559    -1.1882     1.3670 C.2          1    LIG   0.0000
  10 C10          3.3859    -0.8170     2.4931 C.2          1    LIG   0.0000
  11 C11          4.0411    -1.4934     3.5472 C.2          1    LIG   0.0000
  12 C12          5.0498    -2.2125     2.9809 C.2          1    LIG   0.0000
  13 O13          5.0291    -2.0130     1.6826 O.2          1    LIG   0.0000
  14 C14          1.2013    -0.6897    -0.0158 C.ar         1    LIG   0.0000
  15 C15         -0.0143    -0.0135    -0.0014 C.ar         1    LIG   0.0000
  16 H            4.4418    -0.0986    -0.3606 H            1    LIG   0.0000
  17 H           -1.8244     4.5510     0.0477 H            1    LIG   0.0000
  18 H           -0.4628     4.1400     0.8501 H            1    LIG   0.0000
  19 H           -0.4762     4.1517    -0.7828 H            1    LIG   0.0000
  20 H            1.1558     3.1000     0.0125 H            1    LIG   0.0000
  21 H            3.2435     1.9229    -0.0114 H            1    LIG   0.0000
  22 H            4.5047    -2.3188    -0.9170 H            1    LIG   0.0000
  23 H            2.6015    -0.2003     2.5597 H            1    LIG   0.0000
  24 H            3.8093    -1.4520     4.5190 H            1    LIG   0.0000
  25 H            5.6979    -2.7950     3.4714 H            1    LIG   0.0000
  26 H            1.2173    -1.6895    -0.0228 H            1    LIG   0.0000
  27 H           -0.8758    -0.5213     0.0007 H            1    LIG   0.0000
@<TRIPOS>BOND
   1        1        2 1
   2        2        3 1
   3        3        4 ar
   4        4        5 ar
   5        5        6 ar
   6        6        7 1
   7        7        8 1
   8        7        9 1
   9        9       10 2
  10       10       11 1
  11       11       12 2
  12       12       13 1
  13       13        9 1
  14        6       14 ar
  15       14       15 ar
  16       15        3 ar
  17        7       16 1
  18        1       17 1
  19        1       18 1
  20        1       19 1
  21        4       20 1
  22        5       21 1
  23        8       22 1
  24       10       23 1
  25       11       24 1
  26       12       25 1
  27       14       26 1
  28       15       27 1

@<TRIPOS>MOLECULE

  27   28
SMALL
USER_CHARGES
@<TRIPOS>ATOM
   1 C1          -2.7427     0.8792     0.0289 C.3          1    LIG   0.0000
   2 S2          -1.5352     2.2275     0.0286 S.3          1    LIG   0.0000
   3 C3          -0.0171     1.3774     0.0100 C.ar         1    LIG   0.0000
   4 C4           1.1715     2.1002     0.0054 C.ar         1    LIG   0.0000
   5 C5           2.3820     1.4153    -0.0091 C.ar         1    LIG   0.0000
   6 C6           2.3943     0.0250    -0.0203 C.ar         1    LIG   0.0000
   7 C7           3.7226    -0.7135    -0.0371 C.3          1    LIG   0.0000
   8 O8           4.5629    -0.1996     0.9857 O.3          1    LIG   0.0000
   9 C9           4.3922    -0.5206    -1.3871 C.2          1    LIG   0.0000
  10 C10          5.0893     0.5890    -1.7582 C.2          1    LIG   0.0000
  11 C11          5.5197     0.3249    -3.0783 C.2          1    LIG   0.0000
  12 C12          5.0503    -0.9125    -3.4008 C.2          1    LIG   0.0000
  13 O13          4.3876    -1.3904    -2.3723 O.2          1    LIG   0.0000
  14 C14          1.2013    -0.6897    -0.0158 C.ar         1    LIG   0.0000
  15 C15         -0.0143    -0.0135    -0.0014 C.ar         1    LIG   0.0000
  16 H            3.5640    -1.6882     0.1201 H            1    LIG   0.0000
  17 H           -3.6674     1.2598     0.0392 H            1    LIG   0.0000
  18 H           -2.6207     0.3222    -0.7927 H            1    LIG   0.0000
  19 H           -2.6073     0.3105     0.8402 H            1    LIG   0.0000
  20 H            1.1558     3.1000     0.0125 H            1    LIG   0.0000
  21 H            3.2435     1.9229    -0.0114 H            1    LIG   0.0000
  22 H            5.4368    -0.6855     0.9747 H            1    LIG   0.0000
  23 H            5.2595     1.4112    -1.2151 H            1    LIG   0.0000
  24 H            6.0629     0.9287    -3.6618 H            1    LIG   0.0000
  25 H            5.1874    -1.3791    -4.2746 H            1    LIG   0.0000
  26 H            1.2173    -1.6895    -0.0228 H            1    LIG   0.0000
  27 H           -0.8758    -0.5213     0.0007 H            1    LIG   0.0000
@<TRIPOS>BOND
   1        1        2 1
   2        2        3 1
   3        3        4 ar
   4        4        5 ar
   5        5        6 ar
   6        6        7 1
   7        7        8 1
   8        7        9 1
   9        9       10 2
  10       10       11 1
  11       11       12 2
  12       12       13 1
  13       13        9 1
  14        6       14 ar
  15       14       15 ar
  16       15        3 ar
  17        7       16 1
  18        1       17 1
  19        1       18 1
  20        1       19 1
  21        4       20 1
  22        5       21 1
  23        8       22 1
  24       10       23 1
  25       11       24 1
  26       12       25 1
  27       14       26 1
  28       15       27 1

@<TRIPOS>MOLECULE

  27   28
SMALL
USER_CHARGES
@<TRIPOS>ATOM
   1 C1          -2.7427     0.8792     0.0289 C.3          1    LIG   0.0000
   2 S2          -1.5352     2.2275     0.0286 S.3          1    LIG   0.0000
   3 C3          -0.0171     1.3774     0.0100 C.ar         1    LIG   0.0000
   4 C4           1.1715     2.1002     0.0054 C.ar         1    LIG   0.0000
   5 C5           2.3820     1.4153    -0.0091 C.ar         1    LIG   0.0000
   6 C6           2.3943     0.0250    -0.0203 C.ar         1    LIG   0.0000
   7 C7           3.7226    -0.7135    -0.0371 C.3          1    LIG   0.0000
   8 O8           4.5629    -0.1996     0.9857 O.3          1    LIG   0.0000
   9 C9           4.3922    -0.5206    -1.3871 C.2          1    LIG   0.0000
  10 C10          4.5491    -1.4966    -2.3241 C.2          1    LIG   0.0000
  11 C11          5.2183    -0.8670    -3.3981 C.2          1    LIG   0.0000
  12 C12          5.4148     0.4292    -3.0284 C.2          1    LIG   0.0000
  13 O13          4.9082     0.6043    -1.8291 O.2          1    LIG   0.0000
  14 C14          1.2013    -0.6897    -0.0158 C.ar         1    LIG   0.0000
  15 C15         -0.0143    -0.0135    -0.0014 C.ar         1    LIG   0.0000
  16 H            3.5640    -1.6882     0.1201 H            1    LIG   0.0000
  17 H           -3.6674     1.2598     0.0392 H            1    LIG   0.0000
  18 H           -2.6207     0.3222    -0.7927 H            1    LIG   0.0000
  19 H           -2.6073     0.3105     0.8402 H            1    LIG   0.0000
  20 H            1.1558     3.1000     0.0125 H            1    LIG   0.0000
  21 H            3.2435     1.9229    -0.0114 H            1    LIG   0.0000
  22 H            5.4368    -0.6855     0.9747 H            1    LIG   0.0000
  23 H            4.2550    -2.4505    -2.2650 H            1    LIG   0.0000
  24 H            5.4937    -1.2905    -4.2611 H            1    LIG   0.0000
  25 H            5.8688     1.1304    -3.5781 H            1    LIG   0.0000
  26 H            1.2173    -1.6895    -0.0228 H            1    LIG   0.0000
  27 H           -0.8758    -0.5213     0.0007 H            1    LIG   0.0000
@<TRIPOS>BOND
   1        1        2 1
   2        2        3 1
   3        3        4 ar
   4        4        5 ar
   5        5        6 ar
   6        6        7 1
   7        7        8 1
   8        7        9 1
   9        9       10 2
  10       10       11 1
  11       11       12 2
  12       12       13 1
  13       13        9 1
  14        6       14 ar
  15       14       15 ar
  16       15        3 ar
  17        7       16 1
  18        1       17 1
  19        1       18 1
  20        1       19 1
  21        4       20 1
  22        5       21 1
  23        8       22 1
  24       10       23 1
  25       11       24 1
  26       12       25 1
  27       14       26 1
  28       15       27 1

@<TRIPOS>MOLECULE

  27   28
SMALL
USER_CHARGES
@<TRIPOS>ATOM
   1 C1          -1.8942     2.4330    -1.7335 C.3          1    LIG   0.0000
   2 S2          -1.5352     2.2275     0.0286 S.3          1    LIG   0.0000
   3 C3          -0.0171     1.3774     0.0100 C.ar         1    LIG   0.0000
   4 C4           1.1715     2.1002     0.0054 C.ar         1    LIG   0.0000
   5 C5           2.3820     1.4153    -0.0091 C.ar         1    LIG   0.0000
   6 C6           2.3943     0.0250    -0.0203 C.ar         1    LIG   0.0000
   7 C7           3.7226    -0.7135    -0.0371 C.3          1    LIG   0.0000
   8 O8           4.5629    -0.1996     0.9857 O.3          1    LIG   0.0000
   9 C9           4.3922    -0.5206    -1.3871 C.2          1    LIG   0.0000
  10 C10          3.7961     0.0341    -2.4789 C.2          1    LIG   0.0000
  11 C11          4.7842     0.0034    -3.4891 C.2          1    LIG   0.0000
  12 C12          5.8906    -0.5657    -2.9345 C.2          1    LIG   0.0000
  13 O13          5.6264    -0.8621    -1.6823 O.2          1    LIG   0.0000
  14 C14          1.2013    -0.6897    -0.0158 C.ar         1    LIG   0.0000
  15 C15         -0.0143    -0.0135    -0.0014 C.ar         1    LIG   0.0000
  16 H            3.5640    -1.6882     0.1201 H            1    LIG   0.0000
  17 H           -2.7614     2.9189    -1.8425 H            1    LIG   0.0000
  18 H           -1.1608     2.9593    -2.1639 H            1    LIG   0.0000
  19 H           -1.9587     1.5345    -2.1676 H            1    LIG   0.0000
  20 H            1.1558     3.1000     0.0125 H            1    LIG   0.0000
  21 H            3.2435     1.9229    -0.0114 H            1    LIG   0.0000
  22 H            5.4368    -0.6855     0.9747 H            1    LIG   0.0000
  23 H            2.8629     0.3862    -2.5502 H            1    LIG   0.0000
  24 H            4.6895     0.3349    -4.4278 H            1    LIG   0.0000
  25 H            6.7589    -0.7303    -3.4025 H            1    LIG   0.0000
  26 H            1.2173    -1.6895    -0.0228 H            1    LIG   0.0000
  27 H           -0.8758    -0.5213     0.0007 H            1    LIG   0.0000
@<TRIPOS>BOND
   1        1        2 1
   2        2        3 1
   3        3        4 ar
   4        4        5 ar
   5        5        6 ar
   6        6        7 1
   7        7        8 1
   8        7        9 1
   9        9       10 2
  10       10       11 1
  11       11       12 2
  12       12       13 1
  13       13        9 1
  14        6       14 ar
  15       14       15 ar
  16       15        3 ar
  17        7       16 1
  18        1       17 1
  19        1       18 1
  20        1       19 1
  21        4       20 1
  22        5       21 1
  23        8       22 1
  24       10       23 1
  25       11       24 1
  26       12       25 1
  27       14       26 1
  28       15       27 1

