@<TRIPOS>MOLECULE
*****
 27 28 0 0 0
SMALL
USER_CHARGES

@<TRIPOS>ATOM
      1 C1         -1.0166    3.9616    0.0368 C.3     1  LIG1        0.0000
      2 S2         -1.5352    2.2275    0.0286 S.3     1  LIG1        0.0000
      3 C3         -0.0171    1.3774    0.0100 C.ar    1  LIG1        0.0000
      4 C4          1.1715    2.1002    0.0054 C.ar    1  LIG1        0.0000
      5 C5          2.3820    1.4153   -0.0091 C.ar    1  LIG1        0.0000
      6 C6          2.3943    0.0250   -0.0203 C.ar    1  LIG1        0.0000
      7 C7          3.7226   -0.7135   -0.0371 C.3     1  LIG1        0.0000
      8 O8          4.7869    0.2266   -0.0383 O.3     1  LIG1        0.0000
      9 C9          3.8069   -1.5755   -1.2853 C.2     1  LIG1        0.0000
     10 C10         2.7697   -1.8198   -2.1334 C.2     1  LIG1        0.0000
     11 C11         3.3068   -2.6619   -3.1336 C.2     1  LIG1        0.0000
     12 C12         4.6155   -2.8618   -2.8129 C.2     1  LIG1        0.0000
     13 O13         4.8828   -2.1988   -1.7108 O.2     1  LIG1        0.0000
     14 C14         1.2013   -0.6897   -0.0158 C.ar    1  LIG1        0.0000
     15 C15        -0.0143   -0.0135   -0.0014 C.ar    1  LIG1        0.0000
     16 H           3.7915   -1.2940    0.7742 H       1  LIG1        0.0000
     17 H          -1.8244    4.5510    0.0477 H       1  LIG1        0.0000
     18 H          -0.4628    4.1400    0.8501 H       1  LIG1        0.0000
     19 H          -0.4762    4.1517   -0.7828 H       1  LIG1        0.0000
     20 H           1.1558    3.1000    0.0125 H       1  LIG1        0.0000
     21 H           3.2435    1.9229   -0.0114 H       1  LIG1        0.0000
     22 H           5.6608   -0.2594   -0.0494 H       1  LIG1        0.0000
     23 H           1.8325   -1.4780   -2.0638 H       1  LIG1        0.0000
     24 H           2.8208   -3.0375   -3.9227 H       1  LIG1        0.0000
     25 H           5.2643   -3.4200   -3.3300 H       1  LIG1        0.0000
     26 H           1.2173   -1.6895   -0.0228 H       1  LIG1        0.0000
     27 H          -0.8758   -0.5213    0.0007 H       1  LIG1        0.0000
@<TRIPOS>BOND
     1     1     2    1
     2     2     3    1
     3     3     4   ar
     4     4     5   ar
     5     5     6   ar
     6     6     7    1
     7     7     8    1
     8     7     9    1
     9     9    10    2
    10    10    11    1
    11    11    12    2
    12    12    13    1
    13    13     9    1
    14     6    14   ar
    15    14    15   ar
    16    15     3   ar
    17     7    16    1
    18     1    17    1
    19     1    18    1
    20     1    19    1
    21     4    20    1
    22     5    21    1
    23     8    22    1
    24    10    23    1
    25    11    24    1
    26    12    25    1
    27    14    26    1
    28    15    27    1
