@<TRIPOS>MOLECULE
*****
 27 28 0 0 0
SMALL
USER_CHARGES

@<TRIPOS>ATOM
      1 C1         -2.7427    0.8792    0.0289 C.3     1  LIG1        0.0000
      2 S2         -1.5352    2.2275    0.0286 S.3     1  LIG1        0.0000
      3 C3         -0.0171    1.3774    0.0100 C.ar    1  LIG1        0.0000
      4 C4          1.1715    2.1002    0.0054 C.ar    1  LIG1        0.0000
      5 C5          2.3820    1.4153   -0.0091 C.ar    1  LIG1        0.0000
      6 C6          2.3943    0.0250   -0.0203 C.ar    1  LIG1        0.0000
      7 C7          3.7226   -0.7135   -0.0371 C.3     1  LIG1        0.0000
      8 O8          4.5629   -0.1996    0.9857 O.3     1  LIG1        0.0000
      9 C9          4.3922   -0.5206   -1.3871 C.2     1  LIG1        0.0000
     10 C10         4.5491   -1.4966   -2.3241 C.2     1  LIG1        0.0000
     11 C11         5.2183   -0.8670   -3.3981 C.2     1  LIG1        0.0000
     12 C12         5.4148    0.4292   -3.0284 C.2     1  LIG1        0.0000
     13 O13         4.9082    0.6043   -1.8291 O.2     1  LIG1        0.0000
     14 C14         1.2013   -0.6897   -0.0158 C.ar    1  LIG1        0.0000
     15 C15        -0.0143   -0.0135   -0.0014 C.ar    1  LIG1        0.0000
     16 H           3.5640   -1.6882    0.1201 H       1  LIG1        0.0000
     17 H          -3.6674    1.2598    0.0392 H       1  LIG1        0.0000
     18 H          -2.6207    0.3222   -0.7927 H       1  LIG1        0.0000
     19 H          -2.6073    0.3105    0.8402 H       1  LIG1        0.0000
     20 H           1.1558    3.1000    0.0125 H       1  LIG1        0.0000
     21 H           3.2435    1.9229   -0.0114 H       1  LIG1        0.0000
     22 H           5.4368   -0.6855    0.9747 H       1  LIG1        0.0000
     23 H           4.2550   -2.4505   -2.2650 H       1  LIG1        0.0000
     24 H           5.4937   -1.2905   -4.2611 H       1  LIG1        0.0000
     25 H           5.8688    1.1304   -3.5781 H       1  LIG1        0.0000
     26 H           1.2173   -1.6895   -0.0228 H       1  LIG1        0.0000
     27 H          -0.8758   -0.5213    0.0007 H       1  LIG1        0.0000
@<TRIPOS>BOND
     1     1     2    1
     2     2     3    1
     3     3     4   ar
     4     4     5   ar
     5     5     6   ar
     6     6     7    1
     7     7     8    1
     8     7     9    1
     9     9    10    2
    10    10    11    1
    11    11    12    2
    12    12    13    1
    13    13     9    1
    14     6    14   ar
    15    14    15   ar
    16    15     3   ar
    17     7    16    1
    18     1    17    1
    19     1    18    1
    20     1    19    1
    21     4    20    1
    22     5    21    1
    23     8    22    1
    24    10    23    1
    25    11    24    1
    26    12    25    1
    27    14    26    1
    28    15    27    1
