@<TRIPOS>MOLECULE

  51   55
SMALL
USER_CHARGES
@<TRIPOS>ATOM
   1 N1           4.7544     2.3091     0.0165 N.pl3        1    LIG   0.0000
   2 C2           3.3639     2.4872     0.0258 C.2          1    LIG   0.0000
   3 C3           2.8646     3.7613     0.0447 C.2          1    LIG   0.0000
   4 C4           3.6094     5.0078     0.0558 C.2          1    LIG   0.0000
   5 O5           4.8093     4.9899     0.0485 O.2          1    LIG   0.0000
   6 N6           2.9275     6.2307     0.0751 N.am         1    LIG   0.0000
   7 C7           3.6961     7.4847     0.0862 C.3          1    LIG   0.0000
   8 C8           2.9670     8.5649     0.8708 C.3          1    LIG   0.0000
   9 O9           1.5923     8.6245     0.5134 O.3          1    LIG   0.0000
  10 C10          0.9243     7.4256     0.8852 C.3          1    LIG   0.0000
  11 C11          1.4564     6.2314     0.1077 C.3          1    LIG   0.0000
  12 S12          1.1683     3.6568     0.0512 S.3          1    LIG   0.0000
  13 C13          1.1304     1.9580     0.0160 C.ar         1    LIG   0.0000
  14 N14         -0.0336     1.3107    -0.0207 N.ar         1    LIG   0.0000
  15 C15          0.0247    -0.0209    -0.0315 C.ar         1    LIG   0.0000
  16 C16          1.2450    -0.6801     0.0428 C.ar         1    LIG   0.0000
  17 C17          2.4324     0.0398     0.0424 C.ar         1    LIG   0.0000
  18 C18          3.7137    -0.6381     0.0843 C.ar         1    LIG   0.0000
  19 C19          4.2901    -0.9422     1.3134 C.ar         1    LIG   0.0000
  20 C20          5.5192    -1.5916     1.3631 C.ar         1    LIG   0.0000
  21 C21          6.1572    -1.9287     0.1738 C.ar         1    LIG   0.0000
  22 Cl22         7.7300    -2.7598     0.2297 Cl           1    LIG   0.0000
  23 C23          5.5885    -1.6277    -1.0598 C.ar         1    LIG   0.0000
  24 C24          4.3593    -0.9778    -1.0998 C.ar         1    LIG   0.0000
  25 C25          2.4074     1.4335     0.0221 C.ar         1    LIG   0.0000
  26 C26          1.2592    -2.1973     0.1262 C.3          1    LIG   0.0000
  27 C27         -0.0111    -2.8271    -0.4181 C.3          1    LIG   0.0000
  28 C28         -1.1393    -2.2043     0.3859 C.3          1    LIG   0.0000
  29 C29         -1.2938    -0.7779    -0.1164 C.3          1    LIG   0.0000
  30 H            5.3604     3.1045     0.0200 H            1    LIG   0.0000
  31 H            5.1403     1.3866     0.0064 H            1    LIG   0.0000
  32 H            3.8269     7.7963    -0.8550 H            1    LIG   0.0000
  33 H            4.5869     7.3185     0.5091 H            1    LIG   0.0000
  34 H            3.0412     8.3641     1.8476 H            1    LIG   0.0000
  35 H            3.3920     9.4496     0.6792 H            1    LIG   0.0000
  36 H           -0.0530     7.5262     0.6987 H            1    LIG   0.0000
  37 H            1.0625     7.2656     1.8625 H            1    LIG   0.0000
  38 H            1.1393     5.3899     0.5452 H            1    LIG   0.0000
  39 H            1.1093     6.2713    -0.8293 H            1    LIG   0.0000
  40 H            3.8209    -0.6940     2.1609 H            1    LIG   0.0000
  41 H            5.9391    -1.8134     2.2432 H            1    LIG   0.0000
  42 H            6.0577    -1.8755    -1.9073 H            1    LIG   0.0000
  43 H            3.9398    -0.7549    -1.9798 H            1    LIG   0.0000
  44 H            1.3631    -2.4639     1.0843 H            1    LIG   0.0000
  45 H            2.0370    -2.5393    -0.4012 H            1    LIG   0.0000
  46 H            0.0058    -3.8186    -0.2892 H            1    LIG   0.0000
  47 H           -0.1170    -2.6191    -1.3905 H            1    LIG   0.0000
  48 H           -1.9874    -2.7144     0.2428 H            1    LIG   0.0000
  49 H           -0.9103    -2.2046     1.3593 H            1    LIG   0.0000
  50 H           -1.5980    -0.7981    -1.0688 H            1    LIG   0.0000
  51 H           -1.9771    -0.3073     0.4418 H            1    LIG   0.0000
@<TRIPOS>BOND
   1        1        2 1
   2        2        3 2
   3        3        4 1
   4        4        5 2
   5        4        6 am
   6        6        7 1
   7        7        8 1
   8        8        9 1
   9        9       10 1
  10       10       11 1
  11       11        6 1
  12        3       12 1
  13       12       13 1
  14       13       14 ar
  15       14       15 ar
  16       15       16 ar
  17       16       17 ar
  18       17       18 1
  19       18       19 ar
  20       19       20 ar
  21       20       21 ar
  22       21       22 1
  23       21       23 ar
  24       23       24 ar
  25       24       18 ar
  26       17       25 ar
  27       25        2 1
  28       25       13 ar
  29       16       26 1
  30       26       27 1
  31       27       28 1
  32       28       29 1
  33       29       15 1
  34        1       30 1
  35        1       31 1
  36        7       32 1
  37        7       33 1
  38        8       34 1
  39        8       35 1
  40       10       36 1
  41       10       37 1
  42       11       38 1
  43       11       39 1
  44       19       40 1
  45       20       41 1
  46       23       42 1
  47       24       43 1
  48       26       44 1
  49       26       45 1
  50       27       46 1
  51       27       47 1
  52       28       48 1
  53       28       49 1
  54       29       50 1
  55       29       51 1

@<TRIPOS>MOLECULE

  51   55
SMALL
USER_CHARGES
@<TRIPOS>ATOM
   1 N1           4.7544     2.3091     0.0165 N.pl3        1    LIG   0.0000
   2 C2           3.3639     2.4872     0.0258 C.2          1    LIG   0.0000
   3 C3           2.8646     3.7613     0.0447 C.2          1    LIG   0.0000
   4 C4           3.6094     5.0078     0.0558 C.2          1    LIG   0.0000
   5 O5           4.8093     4.9899     0.0485 O.2          1    LIG   0.0000
   6 N6           2.9275     6.2307     0.0751 N.am         1    LIG   0.0000
   7 C7           1.4567     6.2360     0.0839 C.3          1    LIG   0.0000
   8 C8           0.9107     7.4425    -0.6646 C.3          1    LIG   0.0000
   9 O9           1.5875     8.6345    -0.2875 O.3          1    LIG   0.0000
  10 C10          2.9534     8.5818    -0.6790 C.3          1    LIG   0.0000
  11 C11          3.6999     7.4831     0.0623 C.3          1    LIG   0.0000
  12 S12          1.1683     3.6568     0.0512 S.3          1    LIG   0.0000
  13 C13          1.1304     1.9580     0.0160 C.ar         1    LIG   0.0000
  14 N14         -0.0336     1.3107    -0.0207 N.ar         1    LIG   0.0000
  15 C15          0.0247    -0.0209    -0.0315 C.ar         1    LIG   0.0000
  16 C16          1.2450    -0.6801     0.0428 C.ar         1    LIG   0.0000
  17 C17          2.4324     0.0398     0.0424 C.ar         1    LIG   0.0000
  18 C18          3.7137    -0.6381     0.0843 C.ar         1    LIG   0.0000
  19 C19          4.2901    -0.9422     1.3134 C.ar         1    LIG   0.0000
  20 C20          5.5192    -1.5916     1.3631 C.ar         1    LIG   0.0000
  21 C21          6.1572    -1.9287     0.1738 C.ar         1    LIG   0.0000
  22 Cl22         7.7300    -2.7598     0.2297 Cl           1    LIG   0.0000
  23 C23          5.5885    -1.6277    -1.0598 C.ar         1    LIG   0.0000
  24 C24          4.3593    -0.9778    -1.0998 C.ar         1    LIG   0.0000
  25 C25          2.4074     1.4335     0.0221 C.ar         1    LIG   0.0000
  26 C26          1.2592    -2.1973     0.1262 C.3          1    LIG   0.0000
  27 C27         -0.0111    -2.8271    -0.4181 C.3          1    LIG   0.0000
  28 C28         -1.1393    -2.2043     0.3859 C.3          1    LIG   0.0000
  29 C29         -1.2938    -0.7779    -0.1164 C.3          1    LIG   0.0000
  30 H            5.3604     3.1045     0.0200 H            1    LIG   0.0000
  31 H            5.1403     1.3866     0.0064 H            1    LIG   0.0000
  32 H            1.1355     6.2658     1.0305 H            1    LIG   0.0000
  33 H            1.1241     5.4012    -0.3548 H            1    LIG   0.0000
  34 H            1.0294     7.2974    -1.6469 H            1    LIG   0.0000
  35 H           -0.0626     7.5412    -0.4575 H            1    LIG   0.0000
  36 H            3.3841     9.4614    -0.4771 H            1    LIG   0.0000
  37 H            3.0038     8.4037    -1.6617 H            1    LIG   0.0000
  38 H            4.5764     7.3212    -0.3910 H            1    LIG   0.0000
  39 H            3.8610     7.7767     1.0045 H            1    LIG   0.0000
  40 H            3.8209    -0.6940     2.1609 H            1    LIG   0.0000
  41 H            5.9391    -1.8134     2.2432 H            1    LIG   0.0000
  42 H            6.0577    -1.8755    -1.9073 H            1    LIG   0.0000
  43 H            3.9398    -0.7549    -1.9798 H            1    LIG   0.0000
  44 H            1.3631    -2.4639     1.0843 H            1    LIG   0.0000
  45 H            2.0370    -2.5393    -0.4012 H            1    LIG   0.0000
  46 H            0.0058    -3.8186    -0.2892 H            1    LIG   0.0000
  47 H           -0.1170    -2.6191    -1.3905 H            1    LIG   0.0000
  48 H           -1.9874    -2.7144     0.2428 H            1    LIG   0.0000
  49 H           -0.9103    -2.2046     1.3593 H            1    LIG   0.0000
  50 H           -1.5980    -0.7981    -1.0688 H            1    LIG   0.0000
  51 H           -1.9771    -0.3073     0.4418 H            1    LIG   0.0000
@<TRIPOS>BOND
   1        1        2 1
   2        2        3 2
   3        3        4 1
   4        4        5 2
   5        4        6 am
   6        6        7 1
   7        7        8 1
   8        8        9 1
   9        9       10 1
  10       10       11 1
  11       11        6 1
  12        3       12 1
  13       12       13 1
  14       13       14 ar
  15       14       15 ar
  16       15       16 ar
  17       16       17 ar
  18       17       18 1
  19       18       19 ar
  20       19       20 ar
  21       20       21 ar
  22       21       22 1
  23       21       23 ar
  24       23       24 ar
  25       24       18 ar
  26       17       25 ar
  27       25        2 1
  28       25       13 ar
  29       16       26 1
  30       26       27 1
  31       27       28 1
  32       28       29 1
  33       29       15 1
  34        1       30 1
  35        1       31 1
  36        7       32 1
  37        7       33 1
  38        8       34 1
  39        8       35 1
  40       10       36 1
  41       10       37 1
  42       11       38 1
  43       11       39 1
  44       19       40 1
  45       20       41 1
  46       23       42 1
  47       24       43 1
  48       26       44 1
  49       26       45 1
  50       27       46 1
  51       27       47 1
  52       28       48 1
  53       28       49 1
  54       29       50 1
  55       29       51 1

@<TRIPOS>MOLECULE

  51   55
SMALL
USER_CHARGES
@<TRIPOS>ATOM
   1 N1           4.7699     2.3431    -0.0715 N.pl3        1    LIG   0.0000
   2 C2           3.3795     2.5103    -0.0511 C.2          1    LIG   0.0000
   3 C3           2.8761     3.7803    -0.0434 C.2          1    LIG   0.0000
   4 C4           3.6083     5.0300    -0.0518 C.2          1    LIG   0.0000
   5 O5           4.8082     5.0222    -0.0675 O.2          1    LIG   0.0000
   6 N6           2.9163     6.2469    -0.0417 N.am         1    LIG   0.0000
   7 C7           1.4460     6.2295    -0.0225 C.3          1    LIG   0.0000
   8 C8           0.9040     7.4185     0.7556 C.3          1    LIG   0.0000
   9 O9           1.5570     8.6256     0.3837 O.3          1    LIG   0.0000
  10 C10          2.9317     8.5839     0.7436 C.3          1    LIG   0.0000
  11 C11          3.6772     7.5054    -0.0276 C.3          1    LIG   0.0000
  12 S12          1.1824     3.6133    -0.0095 S.3          1    LIG   0.0000
  13 C13          1.1256     1.9194    -0.0034 C.ar         1    LIG   0.0000
  14 N14         -0.0371     1.2878     0.0399 N.ar         1    LIG   0.0000
  15 C15         -0.0076    -0.0566     0.0231 C.ar         1    LIG   0.0000
  16 C16          1.2299    -0.6843    -0.0744 C.ar         1    LIG   0.0000
  17 C17          2.4064     0.0621    -0.0705 C.ar         1    LIG   0.0000
  18 C18          3.6768    -0.6344    -0.1330 C.ar         1    LIG   0.0000
  19 C19          4.3252    -0.9877     1.0461 C.ar         1    LIG   0.0000
  20 C20          5.5445    -1.6553     0.9956 C.ar         1    LIG   0.0000
  21 C21          6.1002    -1.9609    -0.2426 C.ar         1    LIG   0.0000
  22 Cl22         7.6599    -2.8150    -0.3148 Cl           1    LIG   0.0000
  23 C23          5.4591    -1.6106    -1.4266 C.ar         1    LIG   0.0000
  24 C24          4.2403    -0.9428    -1.3665 C.ar         1    LIG   0.0000
  25 C25          2.4205     1.4534    -0.0441 C.ar         1    LIG   0.0000
  26 C26          1.2404    -2.1982    -0.1982 C.3          1    LIG   0.0000
  27 C27         -0.0027    -2.8799     0.3555 C.3          1    LIG   0.0000
  28 C28         -1.1715    -2.2481    -0.3830 C.3          1    LIG   0.0000
  29 C29         -1.3240    -0.8168     0.1053 C.3          1    LIG   0.0000
  30 H            5.3698     3.1432    -0.0751 H            1    LIG   0.0000
  31 H            5.1628     1.4236    -0.0826 H            1    LIG   0.0000
  32 H            1.1334     5.3840     0.4104 H            1    LIG   0.0000
  33 H            1.1050     6.2690    -0.9617 H            1    LIG   0.0000
  34 H           -0.0748     7.5084     0.5716 H            1    LIG   0.0000
  35 H            1.0463     7.2597     1.7326 H            1    LIG   0.0000
  36 H            3.0057     8.3934     1.7225 H            1    LIG   0.0000
  37 H            3.3469     9.4716     0.5445 H            1    LIG   0.0000
  38 H            3.8171     7.8137    -0.9685 H            1    LIG   0.0000
  39 H            4.5640     7.3467     0.4065 H            1    LIG   0.0000
  40 H            3.9149    -0.7618     1.9296 H            1    LIG   0.0000
  41 H            6.0159    -1.9126     1.8392 H            1    LIG   0.0000
  42 H            5.8695    -1.8361    -2.3102 H            1    LIG   0.0000
  43 H            3.7694    -0.6846    -2.2101 H            1    LIG   0.0000
  44 H            2.0360    -2.5475     0.2967 H            1    LIG   0.0000
  45 H            1.3210    -2.4327    -1.1670 H            1    LIG   0.0000
  46 H           -0.0816    -2.7183     1.3392 H            1    LIG   0.0000
  47 H            0.0308    -3.8640     0.1811 H            1    LIG   0.0000
  48 H           -0.9927    -2.2529    -1.3668 H            1    LIG   0.0000
  49 H           -2.0086    -2.7614    -0.1938 H            1    LIG   0.0000
  50 H           -2.0042    -0.3510    -0.4607 H            1    LIG   0.0000
  51 H           -1.6335    -0.8290     1.0561 H            1    LIG   0.0000
@<TRIPOS>BOND
   1        1        2 1
   2        2        3 2
   3        3        4 1
   4        4        5 2
   5        4        6 am
   6        6        7 1
   7        7        8 1
   8        8        9 1
   9        9       10 1
  10       10       11 1
  11       11        6 1
  12        3       12 1
  13       12       13 1
  14       13       14 ar
  15       14       15 ar
  16       15       16 ar
  17       16       17 ar
  18       17       18 1
  19       18       19 ar
  20       19       20 ar
  21       20       21 ar
  22       21       22 1
  23       21       23 ar
  24       23       24 ar
  25       24       18 ar
  26       17       25 ar
  27       25        2 1
  28       25       13 ar
  29       16       26 1
  30       26       27 1
  31       27       28 1
  32       28       29 1
  33       29       15 1
  34        1       30 1
  35        1       31 1
  36        7       32 1
  37        7       33 1
  38        8       34 1
  39        8       35 1
  40       10       36 1
  41       10       37 1
  42       11       38 1
  43       11       39 1
  44       19       40 1
  45       20       41 1
  46       23       42 1
  47       24       43 1
  48       26       44 1
  49       26       45 1
  50       27       46 1
  51       27       47 1
  52       28       48 1
  53       28       49 1
  54       29       50 1
  55       29       51 1

@<TRIPOS>MOLECULE

  51   55
SMALL
USER_CHARGES
@<TRIPOS>ATOM
   1 N1           4.7699     2.3431    -0.0715 N.pl3        1    LIG   0.0000
   2 C2           3.3795     2.5103    -0.0511 C.2          1    LIG   0.0000
   3 C3           2.8761     3.7803    -0.0434 C.2          1    LIG   0.0000
   4 C4           3.6083     5.0300    -0.0518 C.2          1    LIG   0.0000
   5 O5           4.8082     5.0222    -0.0675 O.2          1    LIG   0.0000
   6 N6           2.9124     6.2536    -0.0416 N.am         1    LIG   0.0000
   7 C7           3.5926     7.5552    -0.0493 C.3          1    LIG   0.0000
   8 C8           2.6927     8.5881    -0.7173 C.3          1    LIG   0.0000
   9 O9           1.4641     8.7778    -0.0217 O.3          1    LIG   0.0000
  10 C10          1.0154     7.6164     0.6675 C.3          1    LIG   0.0000
  11 C11          1.4433     6.3277    -0.0188 C.3          1    LIG   0.0000
  12 S12          1.1824     3.6133    -0.0095 S.3          1    LIG   0.0000
  13 C13          1.1256     1.9194    -0.0034 C.ar         1    LIG   0.0000
  14 N14         -0.0371     1.2878     0.0399 N.ar         1    LIG   0.0000
  15 C15         -0.0076    -0.0566     0.0231 C.ar         1    LIG   0.0000
  16 C16          1.2299    -0.6843    -0.0744 C.ar         1    LIG   0.0000
  17 C17          2.4064     0.0621    -0.0705 C.ar         1    LIG   0.0000
  18 C18          3.6768    -0.6344    -0.1330 C.ar         1    LIG   0.0000
  19 C19          4.3252    -0.9877     1.0461 C.ar         1    LIG   0.0000
  20 C20          5.5445    -1.6553     0.9956 C.ar         1    LIG   0.0000
  21 C21          6.1002    -1.9609    -0.2426 C.ar         1    LIG   0.0000
  22 Cl22         7.6599    -2.8150    -0.3148 Cl           1    LIG   0.0000
  23 C23          5.4591    -1.6106    -1.4266 C.ar         1    LIG   0.0000
  24 C24          4.2403    -0.9428    -1.3665 C.ar         1    LIG   0.0000
  25 C25          2.4205     1.4534    -0.0441 C.ar         1    LIG   0.0000
  26 C26          1.2404    -2.1982    -0.1982 C.3          1    LIG   0.0000
  27 C27         -0.0027    -2.8799     0.3555 C.3          1    LIG   0.0000
  28 C28         -1.1715    -2.2481    -0.3830 C.3          1    LIG   0.0000
  29 C29         -1.3240    -0.8168     0.1053 C.3          1    LIG   0.0000
  30 H            5.3698     3.1432    -0.0751 H            1    LIG   0.0000
  31 H            5.1628     1.4236    -0.0826 H            1    LIG   0.0000
  32 H            4.4507     7.4810    -0.5573 H            1    LIG   0.0000
  33 H            3.7849     7.8374     0.8906 H            1    LIG   0.0000
  34 H            3.1789     9.4613    -0.7522 H            1    LIG   0.0000
  35 H            2.4900     8.2821    -1.6475 H            1    LIG   0.0000
  36 H            0.0168     7.6377     0.7151 H            1    LIG   0.0000
  37 H            1.3935     7.6271     1.5933 H            1    LIG   0.0000
  38 H            1.0771     5.5443     0.4833 H            1    LIG   0.0000
  39 H            1.0937     6.3162    -0.9556 H            1    LIG   0.0000
  40 H            3.9149    -0.7618     1.9296 H            1    LIG   0.0000
  41 H            6.0159    -1.9126     1.8392 H            1    LIG   0.0000
  42 H            5.8695    -1.8361    -2.3102 H            1    LIG   0.0000
  43 H            3.7694    -0.6846    -2.2101 H            1    LIG   0.0000
  44 H            2.0360    -2.5475     0.2967 H            1    LIG   0.0000
  45 H            1.3210    -2.4327    -1.1670 H            1    LIG   0.0000
  46 H           -0.0816    -2.7183     1.3392 H            1    LIG   0.0000
  47 H            0.0308    -3.8640     0.1811 H            1    LIG   0.0000
  48 H           -0.9927    -2.2529    -1.3668 H            1    LIG   0.0000
  49 H           -2.0086    -2.7614    -0.1938 H            1    LIG   0.0000
  50 H           -2.0042    -0.3510    -0.4607 H            1    LIG   0.0000
  51 H           -1.6335    -0.8290     1.0561 H            1    LIG   0.0000
@<TRIPOS>BOND
   1        1        2 1
   2        2        3 2
   3        3        4 1
   4        4        5 2
   5        4        6 am
   6        6        7 1
   7        7        8 1
   8        8        9 1
   9        9       10 1
  10       10       11 1
  11       11        6 1
  12        3       12 1
  13       12       13 1
  14       13       14 ar
  15       14       15 ar
  16       15       16 ar
  17       16       17 ar
  18       17       18 1
  19       18       19 ar
  20       19       20 ar
  21       20       21 ar
  22       21       22 1
  23       21       23 ar
  24       23       24 ar
  25       24       18 ar
  26       17       25 ar
  27       25        2 1
  28       25       13 ar
  29       16       26 1
  30       26       27 1
  31       27       28 1
  32       28       29 1
  33       29       15 1
  34        1       30 1
  35        1       31 1
  36        7       32 1
  37        7       33 1
  38        8       34 1
  39        8       35 1
  40       10       36 1
  41       10       37 1
  42       11       38 1
  43       11       39 1
  44       19       40 1
  45       20       41 1
  46       23       42 1
  47       24       43 1
  48       26       44 1
  49       26       45 1
  50       27       46 1
  51       27       47 1
  52       28       48 1
  53       28       49 1
  54       29       50 1
  55       29       51 1

@<TRIPOS>MOLECULE

  51   55
SMALL
USER_CHARGES
@<TRIPOS>ATOM
   1 N1           4.7699     2.3431    -0.0715 N.pl3        1    LIG   0.0000
   2 C2           3.3795     2.5103    -0.0511 C.2          1    LIG   0.0000
   3 C3           2.8761     3.7803    -0.0434 C.2          1    LIG   0.0000
   4 C4           3.6083     5.0300    -0.0518 C.2          1    LIG   0.0000
   5 O5           4.8082     5.0222    -0.0675 O.2          1    LIG   0.0000
   6 N6           2.9177     6.2442    -0.0417 N.am         1    LIG   0.0000
   7 C7           3.6978     7.4899    -0.0507 C.3          1    LIG   0.0000
   8 C8           2.9391     8.5686     0.7075 C.3          1    LIG   0.0000
   9 O9           1.9578     7.9909     1.5569 O.3          1    LIG   0.0000
  10 C10          0.9289     7.4241     0.7573 C.3          1    LIG   0.0000
  11 C11          1.4477     6.1972     0.0259 C.3          1    LIG   0.0000
  12 S12          1.1824     3.6133    -0.0095 S.3          1    LIG   0.0000
  13 C13          1.1256     1.9194    -0.0034 C.ar         1    LIG   0.0000
  14 N14         -0.0371     1.2878     0.0399 N.ar         1    LIG   0.0000
  15 C15         -0.0076    -0.0566     0.0231 C.ar         1    LIG   0.0000
  16 C16          1.2299    -0.6843    -0.0744 C.ar         1    LIG   0.0000
  17 C17          2.4064     0.0621    -0.0705 C.ar         1    LIG   0.0000
  18 C18          3.6768    -0.6344    -0.1330 C.ar         1    LIG   0.0000
  19 C19          4.3252    -0.9877     1.0461 C.ar         1    LIG   0.0000
  20 C20          5.5445    -1.6553     0.9956 C.ar         1    LIG   0.0000
  21 C21          6.1002    -1.9609    -0.2426 C.ar         1    LIG   0.0000
  22 Cl22         7.6599    -2.8150    -0.3148 Cl           1    LIG   0.0000
  23 C23          5.4591    -1.6106    -1.4266 C.ar         1    LIG   0.0000
  24 C24          4.2403    -0.9428    -1.3665 C.ar         1    LIG   0.0000
  25 C25          2.4205     1.4534    -0.0441 C.ar         1    LIG   0.0000
  26 C26          1.2404    -2.1982    -0.1982 C.3          1    LIG   0.0000
  27 C27         -0.0027    -2.8799     0.3555 C.3          1    LIG   0.0000
  28 C28         -1.1715    -2.2481    -0.3830 C.3          1    LIG   0.0000
  29 C29         -1.3240    -0.8168     0.1053 C.3          1    LIG   0.0000
  30 H            5.3698     3.1432    -0.0751 H            1    LIG   0.0000
  31 H            5.1628     1.4236    -0.0826 H            1    LIG   0.0000
  32 H            3.8429     7.7855    -0.9949 H            1    LIG   0.0000
  33 H            4.5821     7.3326     0.3890 H            1    LIG   0.0000
  34 H            3.5837     9.0952     1.2617 H            1    LIG   0.0000
  35 H            2.4895     9.1756     0.0522 H            1    LIG   0.0000
  36 H            0.6195     8.1007     0.0891 H            1    LIG   0.0000
  37 H            0.1629     7.1600     1.3434 H            1    LIG   0.0000
  38 H            1.1637     5.3731     0.5162 H            1    LIG   0.0000
  39 H            1.0727     6.1794    -0.9009 H            1    LIG   0.0000
  40 H            3.9149    -0.7618     1.9296 H            1    LIG   0.0000
  41 H            6.0159    -1.9126     1.8392 H            1    LIG   0.0000
  42 H            5.8695    -1.8361    -2.3102 H            1    LIG   0.0000
  43 H            3.7694    -0.6846    -2.2101 H            1    LIG   0.0000
  44 H            2.0360    -2.5475     0.2967 H            1    LIG   0.0000
  45 H            1.3210    -2.4327    -1.1670 H            1    LIG   0.0000
  46 H           -0.0816    -2.7183     1.3392 H            1    LIG   0.0000
  47 H            0.0308    -3.8640     0.1811 H            1    LIG   0.0000
  48 H           -0.9927    -2.2529    -1.3668 H            1    LIG   0.0000
  49 H           -2.0086    -2.7614    -0.1938 H            1    LIG   0.0000
  50 H           -2.0042    -0.3510    -0.4607 H            1    LIG   0.0000
  51 H           -1.6335    -0.8290     1.0561 H            1    LIG   0.0000
@<TRIPOS>BOND
   1        1        2 1
   2        2        3 2
   3        3        4 1
   4        4        5 2
   5        4        6 am
   6        6        7 1
   7        7        8 1
   8        8        9 1
   9        9       10 1
  10       10       11 1
  11       11        6 1
  12        3       12 1
  13       12       13 1
  14       13       14 ar
  15       14       15 ar
  16       15       16 ar
  17       16       17 ar
  18       17       18 1
  19       18       19 ar
  20       19       20 ar
  21       20       21 ar
  22       21       22 1
  23       21       23 ar
  24       23       24 ar
  25       24       18 ar
  26       17       25 ar
  27       25        2 1
  28       25       13 ar
  29       16       26 1
  30       26       27 1
  31       27       28 1
  32       28       29 1
  33       29       15 1
  34        1       30 1
  35        1       31 1
  36        7       32 1
  37        7       33 1
  38        8       34 1
  39        8       35 1
  40       10       36 1
  41       10       37 1
  42       11       38 1
  43       11       39 1
  44       19       40 1
  45       20       41 1
  46       23       42 1
  47       24       43 1
  48       26       44 1
  49       26       45 1
  50       27       46 1
  51       27       47 1
  52       28       48 1
  53       28       49 1
  54       29       50 1
  55       29       51 1

@<TRIPOS>MOLECULE

  51   55
SMALL
USER_CHARGES
@<TRIPOS>ATOM
   1 N1           4.7699     2.3431    -0.0715 N.pl3        1    LIG   0.0000
   2 C2           3.3795     2.5103    -0.0511 C.2          1    LIG   0.0000
   3 C3           2.8761     3.7803    -0.0434 C.2          1    LIG   0.0000
   4 C4           3.6083     5.0300    -0.0518 C.2          1    LIG   0.0000
   5 O5           4.8082     5.0222    -0.0675 O.2          1    LIG   0.0000
   6 N6           2.9177     6.2442    -0.0417 N.am         1    LIG   0.0000
   7 C7           1.4485     6.2104    -0.0225 C.3          1    LIG   0.0000
   8 C8           0.9039     7.4234    -0.7616 C.3          1    LIG   0.0000
   9 O9           1.8959     7.9822    -1.6112 O.3          1    LIG   0.0000
  10 C10          2.9148     8.5666    -0.8115 C.3          1    LIG   0.0000
  11 C11          3.7093     7.4844    -0.0993 C.3          1    LIG   0.0000
  12 S12          1.1824     3.6133    -0.0095 S.3          1    LIG   0.0000
  13 C13          1.1256     1.9194    -0.0034 C.ar         1    LIG   0.0000
  14 N14         -0.0371     1.2878     0.0399 N.ar         1    LIG   0.0000
  15 C15         -0.0076    -0.0566     0.0231 C.ar         1    LIG   0.0000
  16 C16          1.2299    -0.6843    -0.0744 C.ar         1    LIG   0.0000
  17 C17          2.4064     0.0621    -0.0705 C.ar         1    LIG   0.0000
  18 C18          3.6768    -0.6344    -0.1330 C.ar         1    LIG   0.0000
  19 C19          4.3252    -0.9877     1.0461 C.ar         1    LIG   0.0000
  20 C20          5.5445    -1.6553     0.9956 C.ar         1    LIG   0.0000
  21 C21          6.1002    -1.9609    -0.2426 C.ar         1    LIG   0.0000
  22 Cl22         7.6599    -2.8150    -0.3148 Cl           1    LIG   0.0000
  23 C23          5.4591    -1.6106    -1.4266 C.ar         1    LIG   0.0000
  24 C24          4.2403    -0.9428    -1.3665 C.ar         1    LIG   0.0000
  25 C25          2.4205     1.4534    -0.0441 C.ar         1    LIG   0.0000
  26 C26          1.2404    -2.1982    -0.1982 C.3          1    LIG   0.0000
  27 C27         -0.0027    -2.8799     0.3555 C.3          1    LIG   0.0000
  28 C28         -1.1715    -2.2481    -0.3830 C.3          1    LIG   0.0000
  29 C29         -1.3240    -0.8168     0.1053 C.3          1    LIG   0.0000
  30 H            5.3698     3.1432    -0.0751 H            1    LIG   0.0000
  31 H            5.1628     1.4236    -0.0826 H            1    LIG   0.0000
  32 H            1.1270     6.2249     0.9243 H            1    LIG   0.0000
  33 H            1.1284     5.3757    -0.4705 H            1    LIG   0.0000
  34 H            0.1178     7.1456    -1.3137 H            1    LIG   0.0000
  35 H            0.6168     8.1118    -0.0955 H            1    LIG   0.0000
  36 H            2.4963     9.1699    -0.1326 H            1    LIG   0.0000
  37 H            3.5292     9.0973    -1.3953 H            1    LIG   0.0000
  38 H            4.5591     7.3135    -0.5979 H            1    LIG   0.0000
  39 H            3.9229     7.7860     0.8299 H            1    LIG   0.0000
  40 H            3.9149    -0.7618     1.9296 H            1    LIG   0.0000
  41 H            6.0159    -1.9126     1.8392 H            1    LIG   0.0000
  42 H            5.8695    -1.8361    -2.3102 H            1    LIG   0.0000
  43 H            3.7694    -0.6846    -2.2101 H            1    LIG   0.0000
  44 H            2.0360    -2.5475     0.2967 H            1    LIG   0.0000
  45 H            1.3210    -2.4327    -1.1670 H            1    LIG   0.0000
  46 H           -0.0816    -2.7183     1.3392 H            1    LIG   0.0000
  47 H            0.0308    -3.8640     0.1811 H            1    LIG   0.0000
  48 H           -0.9927    -2.2529    -1.3668 H            1    LIG   0.0000
  49 H           -2.0086    -2.7614    -0.1938 H            1    LIG   0.0000
  50 H           -2.0042    -0.3510    -0.4607 H            1    LIG   0.0000
  51 H           -1.6335    -0.8290     1.0561 H            1    LIG   0.0000
@<TRIPOS>BOND
   1        1        2 1
   2        2        3 2
   3        3        4 1
   4        4        5 2
   5        4        6 am
   6        6        7 1
   7        7        8 1
   8        8        9 1
   9        9       10 1
  10       10       11 1
  11       11        6 1
  12        3       12 1
  13       12       13 1
  14       13       14 ar
  15       14       15 ar
  16       15       16 ar
  17       16       17 ar
  18       17       18 1
  19       18       19 ar
  20       19       20 ar
  21       20       21 ar
  22       21       22 1
  23       21       23 ar
  24       23       24 ar
  25       24       18 ar
  26       17       25 ar
  27       25        2 1
  28       25       13 ar
  29       16       26 1
  30       26       27 1
  31       27       28 1
  32       28       29 1
  33       29       15 1
  34        1       30 1
  35        1       31 1
  36        7       32 1
  37        7       33 1
  38        8       34 1
  39        8       35 1
  40       10       36 1
  41       10       37 1
  42       11       38 1
  43       11       39 1
  44       19       40 1
  45       20       41 1
  46       23       42 1
  47       24       43 1
  48       26       44 1
  49       26       45 1
  50       27       46 1
  51       27       47 1
  52       28       48 1
  53       28       49 1
  54       29       50 1
  55       29       51 1

@<TRIPOS>MOLECULE

  51   55
SMALL
USER_CHARGES
@<TRIPOS>ATOM
   1 N1           4.7699     2.3431    -0.0715 N.pl3        1    LIG   0.0000
   2 C2           3.3795     2.5103    -0.0511 C.2          1    LIG   0.0000
   3 C3           2.8761     3.7803    -0.0434 C.2          1    LIG   0.0000
   4 C4           3.6083     5.0300    -0.0518 C.2          1    LIG   0.0000
   5 O5           4.8082     5.0222    -0.0675 O.2          1    LIG   0.0000
   6 N6           2.9113     6.2555    -0.0416 N.am         1    LIG   0.0000
   7 C7           3.5987     7.5566    -0.0494 C.3          1    LIG   0.0000
   8 C8           2.7384     8.6175     0.6224 C.3          1    LIG   0.0000
   9 O9           1.4756     8.7986    -0.0094 O.3          1    LIG   0.0000
  10 C10          0.9971     7.6426    -0.6875 C.3          1    LIG   0.0000
  11 C11          1.4460     6.3519    -0.0201 C.3          1    LIG   0.0000
  12 S12          1.1824     3.6133    -0.0095 S.3          1    LIG   0.0000
  13 C13          1.1256     1.9194    -0.0034 C.ar         1    LIG   0.0000
  14 N14         -0.0371     1.2878     0.0399 N.ar         1    LIG   0.0000
  15 C15         -0.0076    -0.0566     0.0231 C.ar         1    LIG   0.0000
  16 C16          1.2299    -0.6843    -0.0744 C.ar         1    LIG   0.0000
  17 C17          2.4064     0.0621    -0.0705 C.ar         1    LIG   0.0000
  18 C18          3.6768    -0.6344    -0.1330 C.ar         1    LIG   0.0000
  19 C19          4.3252    -0.9877     1.0461 C.ar         1    LIG   0.0000
  20 C20          5.5445    -1.6553     0.9956 C.ar         1    LIG   0.0000
  21 C21          6.1002    -1.9609    -0.2426 C.ar         1    LIG   0.0000
  22 Cl22         7.6599    -2.8150    -0.3148 Cl           1    LIG   0.0000
  23 C23          5.4591    -1.6106    -1.4266 C.ar         1    LIG   0.0000
  24 C24          4.2403    -0.9428    -1.3665 C.ar         1    LIG   0.0000
  25 C25          2.4205     1.4534    -0.0441 C.ar         1    LIG   0.0000
  26 C26          1.2404    -2.1982    -0.1982 C.3          1    LIG   0.0000
  27 C27         -0.0027    -2.8799     0.3555 C.3          1    LIG   0.0000
  28 C28         -1.1715    -2.2481    -0.3830 C.3          1    LIG   0.0000
  29 C29         -1.3240    -0.8168     0.1053 C.3          1    LIG   0.0000
  30 H            5.3698     3.1432    -0.0751 H            1    LIG   0.0000
  31 H            5.1628     1.4236    -0.0826 H            1    LIG   0.0000
  32 H            3.7781     7.8285    -0.9948 H            1    LIG   0.0000
  33 H            4.4647     7.4743     0.4438 H            1    LIG   0.0000
  34 H            2.5825     8.3457     1.5720 H            1    LIG   0.0000
  35 H            3.2319     9.4870     0.6013 H            1    LIG   0.0000
  36 H            1.3415     7.6554    -1.6262 H            1    LIG   0.0000
  37 H           -0.0025     7.6676    -0.6988 H            1    LIG   0.0000
  38 H            1.1278     6.3417     0.9279 H            1    LIG   0.0000
  39 H            1.0561     5.5728    -0.5109 H            1    LIG   0.0000
  40 H            3.9149    -0.7618     1.9296 H            1    LIG   0.0000
  41 H            6.0159    -1.9126     1.8392 H            1    LIG   0.0000
  42 H            5.8695    -1.8361    -2.3102 H            1    LIG   0.0000
  43 H            3.7694    -0.6846    -2.2101 H            1    LIG   0.0000
  44 H            2.0360    -2.5475     0.2967 H            1    LIG   0.0000
  45 H            1.3210    -2.4327    -1.1670 H            1    LIG   0.0000
  46 H           -0.0816    -2.7183     1.3392 H            1    LIG   0.0000
  47 H            0.0308    -3.8640     0.1811 H            1    LIG   0.0000
  48 H           -0.9927    -2.2529    -1.3668 H            1    LIG   0.0000
  49 H           -2.0086    -2.7614    -0.1938 H            1    LIG   0.0000
  50 H           -2.0042    -0.3510    -0.4607 H            1    LIG   0.0000
  51 H           -1.6335    -0.8290     1.0561 H            1    LIG   0.0000
@<TRIPOS>BOND
   1        1        2 1
   2        2        3 2
   3        3        4 1
   4        4        5 2
   5        4        6 am
   6        6        7 1
   7        7        8 1
   8        8        9 1
   9        9       10 1
  10       10       11 1
  11       11        6 1
  12        3       12 1
  13       12       13 1
  14       13       14 ar
  15       14       15 ar
  16       15       16 ar
  17       16       17 ar
  18       17       18 1
  19       18       19 ar
  20       19       20 ar
  21       20       21 ar
  22       21       22 1
  23       21       23 ar
  24       23       24 ar
  25       24       18 ar
  26       17       25 ar
  27       25        2 1
  28       25       13 ar
  29       16       26 1
  30       26       27 1
  31       27       28 1
  32       28       29 1
  33       29       15 1
  34        1       30 1
  35        1       31 1
  36        7       32 1
  37        7       33 1
  38        8       34 1
  39        8       35 1
  40       10       36 1
  41       10       37 1
  42       11       38 1
  43       11       39 1
  44       19       40 1
  45       20       41 1
  46       23       42 1
  47       24       43 1
  48       26       44 1
  49       26       45 1
  50       27       46 1
  51       27       47 1
  52       28       48 1
  53       28       49 1
  54       29       50 1
  55       29       51 1

@<TRIPOS>MOLECULE

  51   55
SMALL
USER_CHARGES
@<TRIPOS>ATOM
   1 N1           4.7503     2.3114    -0.0476 N.pl3        1    LIG   0.0000
   2 C2           3.3674     2.5151    -0.0113 C.2          1    LIG   0.0000
   3 C3           2.8792     3.7902    -0.0177 C.2          1    LIG   0.0000
   4 C4           3.6444     5.0216    -0.0608 C.2          1    LIG   0.0000
   5 O5           4.8432     4.9821    -0.0959 O.2          1    LIG   0.0000
   6 N6           2.9808     6.2630    -0.0614 N.am         1    LIG   0.0000
   7 C7           1.5176     6.3825    -0.0197 C.3          1    LIG   0.0000
   8 C8           1.1400     7.6980     0.6510 C.3          1    LIG   0.0000
   9 O9           1.6186     8.8349    -0.0616 O.3          1    LIG   0.0000
  10 C10          2.8236     8.5911    -0.7784 C.3          1    LIG   0.0000
  11 C11          3.7012     7.5449    -0.1075 C.3          1    LIG   0.0000
  12 S12          1.1853     3.6405     0.0304 S.3          1    LIG   0.0000
  13 C13          1.1044     1.9443     0.0678 C.ar         1    LIG   0.0000
  14 N14         -0.0515     1.3109     0.1240 N.ar         1    LIG   0.0000
  15 C15          0.0341    -0.0243     0.1972 C.ar         1    LIG   0.0000
  16 C16          1.2616    -0.6598     0.1815 C.ar         1    LIG   0.0000
  17 C17          2.4404     0.0835     0.0800 C.ar         1    LIG   0.0000
  18 C18          3.7057    -0.6247     0.0597 C.ar         1    LIG   0.0000
  19 C19          4.3461    -0.9213     1.2587 C.ar         1    LIG   0.0000
  20 C20          5.5605    -1.5995     1.2488 C.ar         1    LIG   0.0000
  21 C21          6.1195    -1.9727     0.0307 C.ar         1    LIG   0.0000
  22 Cl22         7.6730    -2.8409     0.0104 Cl           1    LIG   0.0000
  23 C23          5.4864    -1.6795    -1.1729 C.ar         1    LIG   0.0000
  24 C24          4.2724    -1.0006    -1.1534 C.ar         1    LIG   0.0000
  25 C25          2.3971     1.4738     0.0367 C.ar         1    LIG   0.0000
  26 C26          1.2437    -2.1769     0.2920 C.3          1    LIG   0.0000
  27 C27          0.2099    -2.6812     1.3033 C.3          1    LIG   0.0000
  28 C28         -1.0511    -1.8300     1.4182 C.3          1    LIG   0.0000
  29 C29         -1.2788    -0.7801     0.3368 C.3          1    LIG   0.0000
  30 H            5.3705     3.0952    -0.0805 H            1    LIG   0.0000
  31 H            5.1191     1.3819    -0.0405 H            1    LIG   0.0000
  32 H            1.1346     5.6197     0.5013 H            1    LIG   0.0000
  33 H            1.1542     6.3658    -0.9512 H            1    LIG   0.0000
  34 H            0.1432     7.7530     0.7092 H            1    LIG   0.0000
  35 H            1.5289     7.7107     1.5722 H            1    LIG   0.0000
  36 H            3.3371     9.4468    -0.8423 H            1    LIG   0.0000
  37 H            2.5910     8.2726    -1.6973 H            1    LIG   0.0000
  38 H            4.5471     7.4341    -0.6292 H            1    LIG   0.0000
  39 H            3.9195     7.8390     0.8230 H            1    LIG   0.0000
  40 H            3.9335    -0.6469     2.1273 H            1    LIG   0.0000
  41 H            6.0262    -1.8162     2.1068 H            1    LIG   0.0000
  42 H            5.8991    -1.9534    -2.0416 H            1    LIG   0.0000
  43 H            3.8073    -0.7829    -2.0115 H            1    LIG   0.0000
  44 H            2.1500    -2.4879     0.5782 H            1    LIG   0.0000
  45 H            1.0276    -2.5609    -0.6056 H            1    LIG   0.0000
  46 H            0.6458    -2.7123     2.2027 H            1    LIG   0.0000
  47 H           -0.0631    -3.6045     1.0331 H            1    LIG   0.0000
  48 H           -1.8356    -2.4500     1.4066 H            1    LIG   0.0000
  49 H           -1.0149    -1.3546     2.2973 H            1    LIG   0.0000
  50 H           -1.5194    -1.2200    -0.5284 H            1    LIG   0.0000
  51 H           -2.0112    -0.1558     0.6083 H            1    LIG   0.0000
@<TRIPOS>BOND
   1        1        2 1
   2        2        3 2
   3        3        4 1
   4        4        5 2
   5        4        6 am
   6        6        7 1
   7        7        8 1
   8        8        9 1
   9        9       10 1
  10       10       11 1
  11       11        6 1
  12        3       12 1
  13       12       13 1
  14       13       14 ar
  15       14       15 ar
  16       15       16 ar
  17       16       17 ar
  18       17       18 1
  19       18       19 ar
  20       19       20 ar
  21       20       21 ar
  22       21       22 1
  23       21       23 ar
  24       23       24 ar
  25       24       18 ar
  26       17       25 ar
  27       25        2 1
  28       25       13 ar
  29       16       26 1
  30       26       27 1
  31       27       28 1
  32       28       29 1
  33       29       15 1
  34        1       30 1
  35        1       31 1
  36        7       32 1
  37        7       33 1
  38        8       34 1
  39        8       35 1
  40       10       36 1
  41       10       37 1
  42       11       38 1
  43       11       39 1
  44       19       40 1
  45       20       41 1
  46       23       42 1
  47       24       43 1
  48       26       44 1
  49       26       45 1
  50       27       46 1
  51       27       47 1
  52       28       48 1
  53       28       49 1
  54       29       50 1
  55       29       51 1

@<TRIPOS>MOLECULE

  51   55
SMALL
USER_CHARGES
@<TRIPOS>ATOM
   1 N1           4.7364     2.2119    -0.0308 N.pl3        1    LIG   0.0000
   2 C2           3.3548     2.4368    -0.0460 C.2          1    LIG   0.0000
   3 C3           2.8764     3.7159    -0.0564 C.2          1    LIG   0.0000
   4 C4           3.6455     4.9484    -0.0489 C.2          1    LIG   0.0000
   5 O5           4.8447     4.9072    -0.0318 O.2          1    LIG   0.0000
   6 N6           2.9876     6.1841    -0.0617 N.am         1    LIG   0.0000
   7 C7           1.5175     6.2077    -0.0826 C.3          1    LIG   0.0000
   8 C8           0.9879     7.4145     0.6764 C.3          1    LIG   0.0000
   9 O9           1.6843     8.6015     0.3184 O.3          1    LIG   0.0000
  10 C10          3.0470     8.5230     0.7159 C.3          1    LIG   0.0000
  11 C11          3.7828     7.4211    -0.0311 C.3          1    LIG   0.0000
  12 S12          1.1776     3.6395    -0.0841 S.3          1    LIG   0.0000
  13 C13          1.0808     1.9400    -0.0848 C.ar         1    LIG   0.0000
  14 N14         -0.0922     1.3093    -0.1220 N.ar         1    LIG   0.0000
  15 C15         -0.0490    -0.0222    -0.1783 C.ar         1    LIG   0.0000
  16 C16          1.1598    -0.6976    -0.1456 C.ar         1    LIG   0.0000
  17 C17          2.3577     0.0273    -0.0697 C.ar         1    LIG   0.0000
  18 C18          3.6016    -0.7177    -0.0425 C.ar         1    LIG   0.0000
  19 C19          4.1581    -1.0810     1.1797 C.ar         1    LIG   0.0000
  20 C20          5.3514    -1.7950     1.2153 C.ar         1    LIG   0.0000
  21 C21          5.9739    -2.1363     0.0189 C.ar         1    LIG   0.0000
  22 Cl22         7.5009    -3.0499     0.0568 Cl           1    LIG   0.0000
  23 C23          5.4249    -1.7764    -1.2077 C.ar         1    LIG   0.0000
  24 C24          4.2315    -1.0622    -1.2336 C.ar         1    LIG   0.0000
  25 C25          2.3591     1.4183    -0.0576 C.ar         1    LIG   0.0000
  26 C26          1.0811    -2.2159    -0.2187 C.3          1    LIG   0.0000
  27 C27          0.1866    -2.5067    -1.4225 C.3          1    LIG   0.0000
  28 C28         -1.1853    -1.8425    -1.3875 C.3          1    LIG   0.0000
  29 C29         -1.3597    -0.7821    -0.3042 C.3          1    LIG   0.0000
  30 H            5.3690     2.9863    -0.0233 H            1    LIG   0.0000
  31 H            5.0907     1.2768    -0.0275 H            1    LIG   0.0000
  32 H            1.1697     5.3730     0.3443 H            1    LIG   0.0000
  33 H            1.2034     6.2528    -1.0310 H            1    LIG   0.0000
  34 H            0.0174     7.5309     0.4654 H            1    LIG   0.0000
  35 H            1.0991     7.2558     1.6574 H            1    LIG   0.0000
  36 H            3.0890     8.3345     1.6970 H            1    LIG   0.0000
  37 H            3.4920     9.3980     0.5252 H            1    LIG   0.0000
  38 H            3.9567     7.7214    -0.9689 H            1    LIG   0.0000
  39 H            4.6526     7.2395     0.4275 H            1    LIG   0.0000
  40 H            3.7005    -0.8290     2.0323 H            1    LIG   0.0000
  41 H            5.7569    -2.0596     2.0902 H            1    LIG   0.0000
  42 H            5.8826    -2.0280    -2.0604 H            1    LIG   0.0000
  43 H            3.8266    -0.7965    -2.1085 H            1    LIG   0.0000
  44 H            0.6776    -2.5878     0.6173 H            1    LIG   0.0000
  45 H            1.9907    -2.6091    -0.3533 H            1    LIG   0.0000
  46 H            0.0501    -3.4960    -1.4747 H            1    LIG   0.0000
  47 H            0.6618    -2.1920    -2.2442 H            1    LIG   0.0000
  48 H           -1.3429    -1.4088    -2.2746 H            1    LIG   0.0000
  49 H           -1.8712    -2.5547    -1.2380 H            1    LIG   0.0000
  50 H           -2.0939    -0.1531    -0.5596 H            1    LIG   0.0000
  51 H           -1.5836    -1.2198     0.5667 H            1    LIG   0.0000
@<TRIPOS>BOND
   1        1        2 1
   2        2        3 2
   3        3        4 1
   4        4        5 2
   5        4        6 am
   6        6        7 1
   7        7        8 1
   8        8        9 1
   9        9       10 1
  10       10       11 1
  11       11        6 1
  12        3       12 1
  13       12       13 1
  14       13       14 ar
  15       14       15 ar
  16       15       16 ar
  17       16       17 ar
  18       17       18 1
  19       18       19 ar
  20       19       20 ar
  21       20       21 ar
  22       21       22 1
  23       21       23 ar
  24       23       24 ar
  25       24       18 ar
  26       17       25 ar
  27       25        2 1
  28       25       13 ar
  29       16       26 1
  30       26       27 1
  31       27       28 1
  32       28       29 1
  33       29       15 1
  34        1       30 1
  35        1       31 1
  36        7       32 1
  37        7       33 1
  38        8       34 1
  39        8       35 1
  40       10       36 1
  41       10       37 1
  42       11       38 1
  43       11       39 1
  44       19       40 1
  45       20       41 1
  46       23       42 1
  47       24       43 1
  48       26       44 1
  49       26       45 1
  50       27       46 1
  51       27       47 1
  52       28       48 1
  53       28       49 1
  54       29       50 1
  55       29       51 1

@<TRIPOS>MOLECULE

  51   55
SMALL
USER_CHARGES
@<TRIPOS>ATOM
   1 N1           4.7364     2.2119    -0.0308 N.pl3        1    LIG   0.0000
   2 C2           3.3548     2.4368    -0.0460 C.2          1    LIG   0.0000
   3 C3           2.8764     3.7159    -0.0564 C.2          1    LIG   0.0000
   4 C4           3.6455     4.9484    -0.0489 C.2          1    LIG   0.0000
   5 O5           4.8447     4.9072    -0.0318 O.2          1    LIG   0.0000
   6 N6           2.9840     6.1909    -0.0618 N.am         1    LIG   0.0000
   7 C7           3.7002     7.4731    -0.0553 C.3          1    LIG   0.0000
   8 C8           2.8480     8.5278    -0.7510 C.3          1    LIG   0.0000
   9 O9           1.6067     8.7545    -0.0899 O.3          1    LIG   0.0000
  10 C10          1.1072     7.6088     0.5908 C.3          1    LIG   0.0000
  11 C11          1.5175     6.3060    -0.0793 C.3          1    LIG   0.0000
  12 S12          1.1776     3.6395    -0.0841 S.3          1    LIG   0.0000
  13 C13          1.0808     1.9400    -0.0848 C.ar         1    LIG   0.0000
  14 N14         -0.0922     1.3093    -0.1220 N.ar         1    LIG   0.0000
  15 C15         -0.0490    -0.0222    -0.1783 C.ar         1    LIG   0.0000
  16 C16          1.1598    -0.6976    -0.1456 C.ar         1    LIG   0.0000
  17 C17          2.3577     0.0273    -0.0697 C.ar         1    LIG   0.0000
  18 C18          3.6016    -0.7177    -0.0425 C.ar         1    LIG   0.0000
  19 C19          4.1581    -1.0810     1.1797 C.ar         1    LIG   0.0000
  20 C20          5.3514    -1.7950     1.2153 C.ar         1    LIG   0.0000
  21 C21          5.9739    -2.1363     0.0189 C.ar         1    LIG   0.0000
  22 Cl22         7.5009    -3.0499     0.0568 Cl           1    LIG   0.0000
  23 C23          5.4249    -1.7764    -1.2077 C.ar         1    LIG   0.0000
  24 C24          4.2315    -1.0622    -1.2336 C.ar         1    LIG   0.0000
  25 C25          2.3591     1.4183    -0.0576 C.ar         1    LIG   0.0000
  26 C26          1.0811    -2.2159    -0.2187 C.3          1    LIG   0.0000
  27 C27          0.1866    -2.5067    -1.4225 C.3          1    LIG   0.0000
  28 C28         -1.1853    -1.8425    -1.3875 C.3          1    LIG   0.0000
  29 C29         -1.3597    -0.7821    -0.3042 C.3          1    LIG   0.0000
  30 H            5.3690     2.9863    -0.0233 H            1    LIG   0.0000
  31 H            5.0907     1.2768    -0.0275 H            1    LIG   0.0000
  32 H            4.5694     7.3730    -0.5395 H            1    LIG   0.0000
  33 H            3.8747     7.7537     0.8885 H            1    LIG   0.0000
  34 H            3.3591     9.3870    -0.7756 H            1    LIG   0.0000
  35 H            2.6621     8.2238    -1.6854 H            1    LIG   0.0000
  36 H            0.1086     7.6582     0.6110 H            1    LIG   0.0000
  37 H            1.4602     7.6129     1.5264 H            1    LIG   0.0000
  38 H            1.1160     5.5351     0.4152 H            1    LIG   0.0000
  39 H            1.1932     6.3004    -1.0253 H            1    LIG   0.0000
  40 H            3.7005    -0.8290     2.0323 H            1    LIG   0.0000
  41 H            5.7569    -2.0596     2.0902 H            1    LIG   0.0000
  42 H            5.8826    -2.0280    -2.0604 H            1    LIG   0.0000
  43 H            3.8266    -0.7965    -2.1085 H            1    LIG   0.0000
  44 H            0.6776    -2.5878     0.6173 H            1    LIG   0.0000
  45 H            1.9907    -2.6091    -0.3533 H            1    LIG   0.0000
  46 H            0.0501    -3.4960    -1.4747 H            1    LIG   0.0000
  47 H            0.6618    -2.1920    -2.2442 H            1    LIG   0.0000
  48 H           -1.3429    -1.4088    -2.2746 H            1    LIG   0.0000
  49 H           -1.8712    -2.5547    -1.2380 H            1    LIG   0.0000
  50 H           -2.0939    -0.1531    -0.5596 H            1    LIG   0.0000
  51 H           -1.5836    -1.2198     0.5667 H            1    LIG   0.0000
@<TRIPOS>BOND
   1        1        2 1
   2        2        3 2
   3        3        4 1
   4        4        5 2
   5        4        6 am
   6        6        7 1
   7        7        8 1
   8        8        9 1
   9        9       10 1
  10       10       11 1
  11       11        6 1
  12        3       12 1
  13       12       13 1
  14       13       14 ar
  15       14       15 ar
  16       15       16 ar
  17       16       17 ar
  18       17       18 1
  19       18       19 ar
  20       19       20 ar
  21       20       21 ar
  22       21       22 1
  23       21       23 ar
  24       23       24 ar
  25       24       18 ar
  26       17       25 ar
  27       25        2 1
  28       25       13 ar
  29       16       26 1
  30       26       27 1
  31       27       28 1
  32       28       29 1
  33       29       15 1
  34        1       30 1
  35        1       31 1
  36        7       32 1
  37        7       33 1
  38        8       34 1
  39        8       35 1
  40       10       36 1
  41       10       37 1
  42       11       38 1
  43       11       39 1
  44       19       40 1
  45       20       41 1
  46       23       42 1
  47       24       43 1
  48       26       44 1
  49       26       45 1
  50       27       46 1
  51       27       47 1
  52       28       48 1
  53       28       49 1
  54       29       50 1
  55       29       51 1

@<TRIPOS>MOLECULE

  51   55
SMALL
USER_CHARGES
@<TRIPOS>ATOM
   1 N1           4.7364     2.2119    -0.0308 N.pl3        1    LIG   0.0000
   2 C2           3.3548     2.4368    -0.0460 C.2          1    LIG   0.0000
   3 C3           2.8764     3.7159    -0.0564 C.2          1    LIG   0.0000
   4 C4           3.6455     4.9484    -0.0489 C.2          1    LIG   0.0000
   5 O5           4.8447     4.9072    -0.0318 O.2          1    LIG   0.0000
   6 N6           2.9830     6.1929    -0.0618 N.am         1    LIG   0.0000
   7 C7           3.7063     7.4743    -0.0552 C.3          1    LIG   0.0000
   8 C8           2.8580     8.5615     0.5893 C.3          1    LIG   0.0000
   9 O9           1.6184     8.7750    -0.0773 O.3          1    LIG   0.0000
  10 C10          1.1265     7.6301    -0.7644 C.3          1    LIG   0.0000
  11 C11          1.5208     6.3300    -0.0806 C.3          1    LIG   0.0000
  12 S12          1.1776     3.6395    -0.0841 S.3          1    LIG   0.0000
  13 C13          1.0808     1.9400    -0.0848 C.ar         1    LIG   0.0000
  14 N14         -0.0922     1.3093    -0.1220 N.ar         1    LIG   0.0000
  15 C15         -0.0490    -0.0222    -0.1783 C.ar         1    LIG   0.0000
  16 C16          1.1598    -0.6976    -0.1456 C.ar         1    LIG   0.0000
  17 C17          2.3577     0.0273    -0.0697 C.ar         1    LIG   0.0000
  18 C18          3.6016    -0.7177    -0.0425 C.ar         1    LIG   0.0000
  19 C19          4.1581    -1.0810     1.1797 C.ar         1    LIG   0.0000
  20 C20          5.3514    -1.7950     1.2153 C.ar         1    LIG   0.0000
  21 C21          5.9739    -2.1363     0.0189 C.ar         1    LIG   0.0000
  22 Cl22         7.5009    -3.0499     0.0568 Cl           1    LIG   0.0000
  23 C23          5.4249    -1.7764    -1.2077 C.ar         1    LIG   0.0000
  24 C24          4.2315    -1.0622    -1.2336 C.ar         1    LIG   0.0000
  25 C25          2.3591     1.4183    -0.0576 C.ar         1    LIG   0.0000
  26 C26          1.0811    -2.2159    -0.2187 C.3          1    LIG   0.0000
  27 C27          0.1866    -2.5067    -1.4225 C.3          1    LIG   0.0000
  28 C28         -1.1853    -1.8425    -1.3875 C.3          1    LIG   0.0000
  29 C29         -1.3597    -0.7821    -0.3042 C.3          1    LIG   0.0000
  30 H            5.3690     2.9863    -0.0233 H            1    LIG   0.0000
  31 H            5.0907     1.2768    -0.0275 H            1    LIG   0.0000
  32 H            3.9189     7.7372    -0.9963 H            1    LIG   0.0000
  33 H            4.5560     7.3700     0.4617 H            1    LIG   0.0000
  34 H            2.6689     8.2980     1.5352 H            1    LIG   0.0000
  35 H            3.3760     9.4168     0.5787 H            1    LIG   0.0000
  36 H            1.4964     7.6294    -1.6934 H            1    LIG   0.0000
  37 H            0.1286     7.6828    -0.8030 H            1    LIG   0.0000
  38 H            1.1768     6.3326     0.8584 H            1    LIG   0.0000
  39 H            1.1228     5.5601    -0.5793 H            1    LIG   0.0000
  40 H            3.7005    -0.8290     2.0323 H            1    LIG   0.0000
  41 H            5.7569    -2.0596     2.0902 H            1    LIG   0.0000
  42 H            5.8826    -2.0280    -2.0604 H            1    LIG   0.0000
  43 H            3.8266    -0.7965    -2.1085 H            1    LIG   0.0000
  44 H            0.6776    -2.5878     0.6173 H            1    LIG   0.0000
  45 H            1.9907    -2.6091    -0.3533 H            1    LIG   0.0000
  46 H            0.0501    -3.4960    -1.4747 H            1    LIG   0.0000
  47 H            0.6618    -2.1920    -2.2442 H            1    LIG   0.0000
  48 H           -1.3429    -1.4088    -2.2746 H            1    LIG   0.0000
  49 H           -1.8712    -2.5547    -1.2380 H            1    LIG   0.0000
  50 H           -2.0939    -0.1531    -0.5596 H            1    LIG   0.0000
  51 H           -1.5836    -1.2198     0.5667 H            1    LIG   0.0000
@<TRIPOS>BOND
   1        1        2 1
   2        2        3 2
   3        3        4 1
   4        4        5 2
   5        4        6 am
   6        6        7 1
   7        7        8 1
   8        8        9 1
   9        9       10 1
  10       10       11 1
  11       11        6 1
  12        3       12 1
  13       12       13 1
  14       13       14 ar
  15       14       15 ar
  16       15       16 ar
  17       16       17 ar
  18       17       18 1
  19       18       19 ar
  20       19       20 ar
  21       20       21 ar
  22       21       22 1
  23       21       23 ar
  24       23       24 ar
  25       24       18 ar
  26       17       25 ar
  27       25        2 1
  28       25       13 ar
  29       16       26 1
  30       26       27 1
  31       27       28 1
  32       28       29 1
  33       29       15 1
  34        1       30 1
  35        1       31 1
  36        7       32 1
  37        7       33 1
  38        8       34 1
  39        8       35 1
  40       10       36 1
  41       10       37 1
  42       11       38 1
  43       11       39 1
  44       19       40 1
  45       20       41 1
  46       23       42 1
  47       24       43 1
  48       26       44 1
  49       26       45 1
  50       27       46 1
  51       27       47 1
  52       28       48 1
  53       28       49 1
  54       29       50 1
  55       29       51 1

