@<TRIPOS>MOLECULE
*****
 51 55 0 0 0
SMALL
USER_CHARGES

@<TRIPOS>ATOM
      1 N1          4.7699    2.3431   -0.0715 N.pl3   1  LIG1        0.0000
      2 C2          3.3795    2.5103   -0.0511 C.2     1  LIG1        0.0000
      3 C3          2.8761    3.7803   -0.0434 C.2     1  LIG1        0.0000
      4 C4          3.6083    5.0300   -0.0518 C.2     1  LIG1        0.0000
      5 O5          4.8082    5.0222   -0.0675 O.2     1  LIG1        0.0000
      6 N6          2.9163    6.2469   -0.0417 N.am    1  LIG1        0.0000
      7 C7          1.4460    6.2295   -0.0225 C.3     1  LIG1        0.0000
      8 C8          0.9040    7.4185    0.7556 C.3     1  LIG1        0.0000
      9 O9          1.5570    8.6256    0.3837 O.3     1  LIG1        0.0000
     10 C10         2.9317    8.5839    0.7436 C.3     1  LIG1        0.0000
     11 C11         3.6772    7.5054   -0.0276 C.3     1  LIG1        0.0000
     12 S12         1.1824    3.6133   -0.0095 S.3     1  LIG1        0.0000
     13 C13         1.1256    1.9194   -0.0034 C.3     1  LIG1        0.0000
     14 N14        -0.0371    1.2878    0.0399 N.pl3   1  LIG1        0.0000
     15 C15        -0.0076   -0.0566    0.0231 C.3     1  LIG1        0.0000
     16 C16         1.2299   -0.6843   -0.0744 C.3     1  LIG1        0.0000
     17 C17         2.4064    0.0621   -0.0705 C.3     1  LIG1        0.0000
     18 C18         3.6768   -0.6344   -0.1330 C.3     1  LIG1        0.0000
     19 C19         4.3252   -0.9877    1.0461 C.3     1  LIG1        0.0000
     20 C20         5.5445   -1.6553    0.9956 C.3     1  LIG1        0.0000
     21 C21         6.1002   -1.9609   -0.2426 C.3     1  LIG1        0.0000
     22 Cl22        7.6599   -2.8150   -0.3148 Cl      1  LIG1        0.0000
     23 C23         5.4591   -1.6106   -1.4266 C.3     1  LIG1        0.0000
     24 C24         4.2403   -0.9428   -1.3665 C.3     1  LIG1        0.0000
     25 C25         2.4205    1.4534   -0.0441 C.3     1  LIG1        0.0000
     26 C26         1.2404   -2.1982   -0.1982 C.3     1  LIG1        0.0000
     27 C27        -0.0027   -2.8799    0.3555 C.3     1  LIG1        0.0000
     28 C28        -1.1715   -2.2481   -0.3830 C.3     1  LIG1        0.0000
     29 C29        -1.3240   -0.8168    0.1053 C.3     1  LIG1        0.0000
     30 H           5.3698    3.1432   -0.0751 H       1  LIG1        0.0000
     31 H           5.1628    1.4236   -0.0826 H       1  LIG1        0.0000
     32 H           1.1334    5.3840    0.4104 H       1  LIG1        0.0000
     33 H           1.1050    6.2690   -0.9617 H       1  LIG1        0.0000
     34 H          -0.0748    7.5084    0.5716 H       1  LIG1        0.0000
     35 H           1.0463    7.2597    1.7326 H       1  LIG1        0.0000
     36 H           3.0057    8.3934    1.7225 H       1  LIG1        0.0000
     37 H           3.3469    9.4716    0.5445 H       1  LIG1        0.0000
     38 H           3.8171    7.8137   -0.9685 H       1  LIG1        0.0000
     39 H           4.5640    7.3467    0.4065 H       1  LIG1        0.0000
     40 H           3.9149   -0.7618    1.9296 H       1  LIG1        0.0000
     41 H           6.0159   -1.9126    1.8392 H       1  LIG1        0.0000
     42 H           5.8695   -1.8361   -2.3102 H       1  LIG1        0.0000
     43 H           3.7694   -0.6846   -2.2101 H       1  LIG1        0.0000
     44 H           2.0360   -2.5475    0.2967 H       1  LIG1        0.0000
     45 H           1.3210   -2.4327   -1.1670 H       1  LIG1        0.0000
     46 H          -0.0816   -2.7183    1.3392 H       1  LIG1        0.0000
     47 H           0.0308   -3.8640    0.1811 H       1  LIG1        0.0000
     48 H          -0.9927   -2.2529   -1.3668 H       1  LIG1        0.0000
     49 H          -2.0086   -2.7614   -0.1938 H       1  LIG1        0.0000
     50 H          -2.0042   -0.3510   -0.4607 H       1  LIG1        0.0000
     51 H          -1.6335   -0.8290    1.0561 H       1  LIG1        0.0000
@<TRIPOS>BOND
     1     1     2    1
     2     2     3    2
     3     3     4    1
     4     4     5    2
     5     4     6   am
     6     6     7    1
     7     7     8    1
     8     8     9    1
     9     9    10    1
    10    10    11    1
    11    11     6    1
    12     3    12    1
    13    12    13    1
    14    13    14   ar
    15    14    15   ar
    16    15    16   ar
    17    16    17   ar
    18    17    18    1
    19    18    19   ar
    20    19    20   ar
    21    20    21   ar
    22    21    22    1
    23    21    23   ar
    24    23    24   ar
    25    24    18   ar
    26    17    25   ar
    27    25     2    1
    28    25    13   ar
    29    16    26    1
    30    26    27    1
    31    27    28    1
    32    28    29    1
    33    29    15    1
    34     1    30    1
    35     1    31    1
    36     7    32    1
    37     7    33    1
    38     8    34    1
    39     8    35    1
    40    10    36    1
    41    10    37    1
    42    11    38    1
    43    11    39    1
    44    19    40    1
    45    20    41    1
    46    23    42    1
    47    24    43    1
    48    26    44    1
    49    26    45    1
    50    27    46    1
    51    27    47    1
    52    28    48    1
    53    28    49    1
    54    29    50    1
    55    29    51    1
