@<TRIPOS>MOLECULE
*****
 51 55 0 0 0
SMALL
USER_CHARGES

@<TRIPOS>ATOM
      1 N1          4.7544    2.3091    0.0165 N.pl3   1  LIG1        0.0000
      2 C2          3.3639    2.4872    0.0258 C.2     1  LIG1        0.0000
      3 C3          2.8646    3.7613    0.0447 C.2     1  LIG1        0.0000
      4 C4          3.6094    5.0078    0.0558 C.2     1  LIG1        0.0000
      5 O5          4.8093    4.9899    0.0485 O.2     1  LIG1        0.0000
      6 N6          2.9275    6.2307    0.0751 N.am    1  LIG1        0.0000
      7 C7          1.4567    6.2360    0.0839 C.3     1  LIG1        0.0000
      8 C8          0.9107    7.4425   -0.6646 C.3     1  LIG1        0.0000
      9 O9          1.5875    8.6345   -0.2875 O.3     1  LIG1        0.0000
     10 C10         2.9534    8.5818   -0.6790 C.3     1  LIG1        0.0000
     11 C11         3.6999    7.4831    0.0623 C.3     1  LIG1        0.0000
     12 S12         1.1683    3.6568    0.0512 S.3     1  LIG1        0.0000
     13 C13         1.1304    1.9580    0.0160 C.3     1  LIG1        0.0000
     14 N14        -0.0336    1.3107   -0.0207 N.pl3   1  LIG1        0.0000
     15 C15         0.0247   -0.0209   -0.0315 C.3     1  LIG1        0.0000
     16 C16         1.2450   -0.6801    0.0428 C.3     1  LIG1        0.0000
     17 C17         2.4324    0.0398    0.0424 C.3     1  LIG1        0.0000
     18 C18         3.7137   -0.6381    0.0843 C.3     1  LIG1        0.0000
     19 C19         4.2901   -0.9422    1.3134 C.3     1  LIG1        0.0000
     20 C20         5.5192   -1.5916    1.3631 C.3     1  LIG1        0.0000
     21 C21         6.1572   -1.9287    0.1738 C.3     1  LIG1        0.0000
     22 Cl22        7.7300   -2.7598    0.2297 Cl      1  LIG1        0.0000
     23 C23         5.5885   -1.6277   -1.0598 C.3     1  LIG1        0.0000
     24 C24         4.3593   -0.9778   -1.0998 C.3     1  LIG1        0.0000
     25 C25         2.4074    1.4335    0.0221 C.3     1  LIG1        0.0000
     26 C26         1.2592   -2.1973    0.1262 C.3     1  LIG1        0.0000
     27 C27        -0.0111   -2.8271   -0.4181 C.3     1  LIG1        0.0000
     28 C28        -1.1393   -2.2043    0.3859 C.3     1  LIG1        0.0000
     29 C29        -1.2938   -0.7779   -0.1164 C.3     1  LIG1        0.0000
     30 H           5.3604    3.1045    0.0200 H       1  LIG1        0.0000
     31 H           5.1403    1.3866    0.0064 H       1  LIG1        0.0000
     32 H           1.1355    6.2658    1.0305 H       1  LIG1        0.0000
     33 H           1.1241    5.4012   -0.3548 H       1  LIG1        0.0000
     34 H           1.0294    7.2974   -1.6469 H       1  LIG1        0.0000
     35 H          -0.0626    7.5412   -0.4575 H       1  LIG1        0.0000
     36 H           3.3841    9.4614   -0.4771 H       1  LIG1        0.0000
     37 H           3.0038    8.4037   -1.6617 H       1  LIG1        0.0000
     38 H           4.5764    7.3212   -0.3910 H       1  LIG1        0.0000
     39 H           3.8610    7.7767    1.0045 H       1  LIG1        0.0000
     40 H           3.8209   -0.6940    2.1609 H       1  LIG1        0.0000
     41 H           5.9391   -1.8134    2.2432 H       1  LIG1        0.0000
     42 H           6.0577   -1.8755   -1.9073 H       1  LIG1        0.0000
     43 H           3.9398   -0.7549   -1.9798 H       1  LIG1        0.0000
     44 H           1.3631   -2.4639    1.0843 H       1  LIG1        0.0000
     45 H           2.0370   -2.5393   -0.4012 H       1  LIG1        0.0000
     46 H           0.0058   -3.8186   -0.2892 H       1  LIG1        0.0000
     47 H          -0.1170   -2.6191   -1.3905 H       1  LIG1        0.0000
     48 H          -1.9874   -2.7144    0.2428 H       1  LIG1        0.0000
     49 H          -0.9103   -2.2046    1.3593 H       1  LIG1        0.0000
     50 H          -1.5980   -0.7981   -1.0688 H       1  LIG1        0.0000
     51 H          -1.9771   -0.3073    0.4418 H       1  LIG1        0.0000
@<TRIPOS>BOND
     1     1     2    1
     2     2     3    2
     3     3     4    1
     4     4     5    2
     5     4     6   am
     6     6     7    1
     7     7     8    1
     8     8     9    1
     9     9    10    1
    10    10    11    1
    11    11     6    1
    12     3    12    1
    13    12    13    1
    14    13    14   ar
    15    14    15   ar
    16    15    16   ar
    17    16    17   ar
    18    17    18    1
    19    18    19   ar
    20    19    20   ar
    21    20    21   ar
    22    21    22    1
    23    21    23   ar
    24    23    24   ar
    25    24    18   ar
    26    17    25   ar
    27    25     2    1
    28    25    13   ar
    29    16    26    1
    30    26    27    1
    31    27    28    1
    32    28    29    1
    33    29    15    1
    34     1    30    1
    35     1    31    1
    36     7    32    1
    37     7    33    1
    38     8    34    1
    39     8    35    1
    40    10    36    1
    41    10    37    1
    42    11    38    1
    43    11    39    1
    44    19    40    1
    45    20    41    1
    46    23    42    1
    47    24    43    1
    48    26    44    1
    49    26    45    1
    50    27    46    1
    51    27    47    1
    52    28    48    1
    53    28    49    1
    54    29    50    1
    55    29    51    1
