@<TRIPOS>MOLECULE
*****
 51 55 0 0 0
SMALL
USER_CHARGES

@<TRIPOS>ATOM
      1 N1          4.7364    2.2119   -0.0308 N.pl3   1  LIG1        0.0000
      2 C2          3.3548    2.4368   -0.0460 C.2     1  LIG1        0.0000
      3 C3          2.8764    3.7159   -0.0564 C.2     1  LIG1        0.0000
      4 C4          3.6455    4.9484   -0.0489 C.2     1  LIG1        0.0000
      5 O5          4.8447    4.9072   -0.0318 O.2     1  LIG1        0.0000
      6 N6          2.9876    6.1841   -0.0617 N.am    1  LIG1        0.0000
      7 C7          1.5175    6.2077   -0.0826 C.3     1  LIG1        0.0000
      8 C8          0.9879    7.4145    0.6764 C.3     1  LIG1        0.0000
      9 O9          1.6843    8.6015    0.3184 O.3     1  LIG1        0.0000
     10 C10         3.0470    8.5230    0.7159 C.3     1  LIG1        0.0000
     11 C11         3.7828    7.4211   -0.0311 C.3     1  LIG1        0.0000
     12 S12         1.1776    3.6395   -0.0841 S.3     1  LIG1        0.0000
     13 C13         1.0808    1.9400   -0.0848 C.3     1  LIG1        0.0000
     14 N14        -0.0922    1.3093   -0.1220 N.pl3   1  LIG1        0.0000
     15 C15        -0.0490   -0.0222   -0.1783 C.3     1  LIG1        0.0000
     16 C16         1.1598   -0.6976   -0.1456 C.3     1  LIG1        0.0000
     17 C17         2.3577    0.0273   -0.0697 C.3     1  LIG1        0.0000
     18 C18         3.6016   -0.7177   -0.0425 C.3     1  LIG1        0.0000
     19 C19         4.1581   -1.0810    1.1797 C.3     1  LIG1        0.0000
     20 C20         5.3514   -1.7950    1.2153 C.3     1  LIG1        0.0000
     21 C21         5.9739   -2.1363    0.0189 C.3     1  LIG1        0.0000
     22 Cl22        7.5009   -3.0499    0.0568 Cl      1  LIG1        0.0000
     23 C23         5.4249   -1.7764   -1.2077 C.3     1  LIG1        0.0000
     24 C24         4.2315   -1.0622   -1.2336 C.3     1  LIG1        0.0000
     25 C25         2.3591    1.4183   -0.0576 C.3     1  LIG1        0.0000
     26 C26         1.0811   -2.2159   -0.2187 C.3     1  LIG1        0.0000
     27 C27         0.1866   -2.5067   -1.4225 C.3     1  LIG1        0.0000
     28 C28        -1.1853   -1.8425   -1.3875 C.3     1  LIG1        0.0000
     29 C29        -1.3597   -0.7821   -0.3042 C.3     1  LIG1        0.0000
     30 H           5.3690    2.9863   -0.0233 H       1  LIG1        0.0000
     31 H           5.0907    1.2768   -0.0275 H       1  LIG1        0.0000
     32 H           1.1697    5.3730    0.3443 H       1  LIG1        0.0000
     33 H           1.2034    6.2528   -1.0310 H       1  LIG1        0.0000
     34 H           0.0174    7.5309    0.4654 H       1  LIG1        0.0000
     35 H           1.0991    7.2558    1.6574 H       1  LIG1        0.0000
     36 H           3.0890    8.3345    1.6970 H       1  LIG1        0.0000
     37 H           3.4920    9.3980    0.5252 H       1  LIG1        0.0000
     38 H           3.9567    7.7214   -0.9689 H       1  LIG1        0.0000
     39 H           4.6526    7.2395    0.4275 H       1  LIG1        0.0000
     40 H           3.7005   -0.8290    2.0323 H       1  LIG1        0.0000
     41 H           5.7569   -2.0596    2.0902 H       1  LIG1        0.0000
     42 H           5.8826   -2.0280   -2.0604 H       1  LIG1        0.0000
     43 H           3.8266   -0.7965   -2.1085 H       1  LIG1        0.0000
     44 H           0.6776   -2.5878    0.6173 H       1  LIG1        0.0000
     45 H           1.9907   -2.6091   -0.3533 H       1  LIG1        0.0000
     46 H           0.0501   -3.4960   -1.4747 H       1  LIG1        0.0000
     47 H           0.6618   -2.1920   -2.2442 H       1  LIG1        0.0000
     48 H          -1.3429   -1.4088   -2.2746 H       1  LIG1        0.0000
     49 H          -1.8712   -2.5547   -1.2380 H       1  LIG1        0.0000
     50 H          -2.0939   -0.1531   -0.5596 H       1  LIG1        0.0000
     51 H          -1.5836   -1.2198    0.5667 H       1  LIG1        0.0000
@<TRIPOS>BOND
     1     1     2    1
     2     2     3    2
     3     3     4    1
     4     4     5    2
     5     4     6   am
     6     6     7    1
     7     7     8    1
     8     8     9    1
     9     9    10    1
    10    10    11    1
    11    11     6    1
    12     3    12    1
    13    12    13    1
    14    13    14   ar
    15    14    15   ar
    16    15    16   ar
    17    16    17   ar
    18    17    18    1
    19    18    19   ar
    20    19    20   ar
    21    20    21   ar
    22    21    22    1
    23    21    23   ar
    24    23    24   ar
    25    24    18   ar
    26    17    25   ar
    27    25     2    1
    28    25    13   ar
    29    16    26    1
    30    26    27    1
    31    27    28    1
    32    28    29    1
    33    29    15    1
    34     1    30    1
    35     1    31    1
    36     7    32    1
    37     7    33    1
    38     8    34    1
    39     8    35    1
    40    10    36    1
    41    10    37    1
    42    11    38    1
    43    11    39    1
    44    19    40    1
    45    20    41    1
    46    23    42    1
    47    24    43    1
    48    26    44    1
    49    26    45    1
    50    27    46    1
    51    27    47    1
    52    28    48    1
    53    28    49    1
    54    29    50    1
    55    29    51    1
