@<TRIPOS>MOLECULE

  58   63
SMALL
USER_CHARGES
@<TRIPOS>ATOM
   1 C1          -1.1229    -0.1220     1.0051 C.3          1    LIG   0.0000
   2 C2           0.3887    -0.2817     1.0058 C.3          1    LIG   0.0000
   3 O3           1.0000     1.0000     1.0000 O.3          1    LIG   0.0000
   4 C4           2.3502     1.0000     1.0000 C.ar         1    LIG   0.0000
   5 C5           3.0338     2.2112     0.9945 C.ar         1    LIG   0.0000
   6 C6           4.4246     2.2046     0.9950 C.ar         1    LIG   0.0000
   7 C7           5.1142     0.9958     0.9997 C.ar         1    LIG   0.0000
   8 C8           6.5648     0.9993     1.0006 C.2          1    LIG   0.0000
   9 C9           7.2249     1.5697     0.0076 C.2          1    LIG   0.0000
  10 S10          6.5223     2.3566    -1.3632 S.3          1    LIG   0.0000
  11 C11          8.0282     2.7421    -2.1311 C.2          1    LIG   0.0000
  12 N12          9.0605     2.3671    -1.2622 N.am         1    LIG   0.0000
  13 C13          8.6616     1.6498    -0.1254 C.2          1    LIG   0.0000
  14 O14          9.4137     1.2088     0.7170 O.2          1    LIG   0.0000
  15 C15         10.3516     2.9029    -1.7399 C.3          1    LIG   0.0000
  16 C16         10.6462     4.1990    -1.0020 C.ar         1    LIG   0.0000
  17 C17         11.9441     4.4726    -0.5831 C.ar         1    LIG   0.0000
  18 C18         12.2047     5.6604     0.0920 C.ar         1    LIG   0.0000
  19 C19         11.1729     6.5603     0.3415 C.ar         1    LIG   0.0000
  20 C20          9.8779     6.2786    -0.0813 C.ar         1    LIG   0.0000
  21 C21          9.6086     5.0924    -0.7566 C.ar         1    LIG   0.0000
  22 C22         10.4605     3.2140    -3.2194 C.2          1    LIG   0.0000
  23 C23          9.3507     3.3687    -3.9263 C.2          1    LIG   0.0000
  24 N24          8.1079     3.1939    -3.2985 N.2          1    LIG   0.0000
  25 C25          9.3592     3.7157    -5.3385 C.ar         1    LIG   0.0000
  26 C26          8.2794     4.2662    -6.0256 C.ar         1    LIG   0.0000
  27 C27          8.3374     4.5693    -7.3819 C.ar         1    LIG   0.0000
  28 C28          9.5114     4.3162    -8.0836 C.ar         1    LIG   0.0000
  29 C29         10.6020     3.7680    -7.4175 C.ar         1    LIG   0.0000
  30 C30         10.5212     3.4723    -6.0610 C.ar         1    LIG   0.0000
  31 C31         11.7302     2.8674    -5.3635 C.3          1    LIG   0.0000
  32 C32         11.8064     3.3353    -3.9190 C.3          1    LIG   0.0000
  33 C33          4.4218    -0.2103     1.0045 C.ar         1    LIG   0.0000
  34 C34          3.0306    -0.2129     1.0053 C.ar         1    LIG   0.0000
  35 H           11.0666     2.2436    -1.5075 H            1    LIG   0.0000
  36 H           -1.5534    -1.0246     1.0092 H            1    LIG   0.0000
  37 H           -1.4049     0.3855     1.8193 H            1    LIG   0.0000
  38 H           -1.4049     0.3781     0.1863 H            1    LIG   0.0000
  39 H            0.6707    -0.7818     1.8246 H            1    LIG   0.0000
  40 H            0.6707    -0.7892     0.1916 H            1    LIG   0.0000
  41 H            2.5316     3.0760     0.9903 H            1    LIG   0.0000
  42 H            4.9288     3.0681     0.9919 H            1    LIG   0.0000
  43 H            7.0653     0.5701     1.7524 H            1    LIG   0.0000
  44 H           12.6818     3.8224    -0.7653 H            1    LIG   0.0000
  45 H           13.1338     5.8679     0.3981 H            1    LIG   0.0000
  46 H           11.3633     7.4135     0.8271 H            1    LIG   0.0000
  47 H            9.1403     6.9289     0.1003 H            1    LIG   0.0000
  48 H            8.6795     4.8844    -1.0622 H            1    LIG   0.0000
  49 H            7.4328     4.4499    -5.5261 H            1    LIG   0.0000
  50 H            7.5449     4.9642    -7.8466 H            1    LIG   0.0000
  51 H            9.5707     4.5269    -9.0594 H            1    LIG   0.0000
  52 H           11.4490     3.5853    -7.9166 H            1    LIG   0.0000
  53 H           12.5611     3.1483    -5.8439 H            1    LIG   0.0000
  54 H           11.6553     1.8704    -5.3822 H            1    LIG   0.0000
  55 H           12.4771     2.7761    -3.4317 H            1    LIG   0.0000
  56 H           12.0955     4.2924    -3.9027 H            1    LIG   0.0000
  57 H            4.9237    -1.0752     1.0073 H            1    LIG   0.0000
  58 H            2.5260    -1.0763     1.0098 H            1    LIG   0.0000
@<TRIPOS>BOND
   1        1        2 1
   2        2        3 1
   3        3        4 1
   4        4        5 ar
   5        5        6 ar
   6        6        7 ar
   7        7        8 1
   8        8        9 2
   9        9       10 1
  10       10       11 1
  11       11       12 1
  12       12       13 am
  13       13        9 1
  14       13       14 2
  15       12       15 1
  16       15       16 1
  17       16       17 ar
  18       17       18 ar
  19       18       19 ar
  20       19       20 ar
  21       20       21 ar
  22       21       16 ar
  23       15       22 1
  24       22       23 2
  25       23       24 1
  26       24       11 2
  27       23       25 1
  28       25       26 ar
  29       26       27 ar
  30       27       28 ar
  31       28       29 ar
  32       29       30 ar
  33       30       25 ar
  34       30       31 1
  35       31       32 1
  36       32       22 1
  37        7       33 ar
  38       33       34 ar
  39       34        4 ar
  40       15       35 1
  41        1       36 1
  42        1       37 1
  43        1       38 1
  44        2       39 1
  45        2       40 1
  46        5       41 1
  47        6       42 1
  48        8       43 1
  49       17       44 1
  50       18       45 1
  51       19       46 1
  52       20       47 1
  53       21       48 1
  54       26       49 1
  55       27       50 1
  56       28       51 1
  57       29       52 1
  58       31       53 1
  59       31       54 1
  60       32       55 1
  61       32       56 1
  62       33       57 1
  63       34       58 1

@<TRIPOS>MOLECULE

  58   63
SMALL
USER_CHARGES
@<TRIPOS>ATOM
   1 C1          -1.1229    -0.1220     1.0051 C.3          1    LIG   0.0000
   2 C2           0.3887    -0.2817     1.0058 C.3          1    LIG   0.0000
   3 O3           1.0000     1.0000     1.0000 O.3          1    LIG   0.0000
   4 C4           2.3502     1.0000     1.0000 C.ar         1    LIG   0.0000
   5 C5           3.0338     2.2112     0.9945 C.ar         1    LIG   0.0000
   6 C6           4.4246     2.2046     0.9950 C.ar         1    LIG   0.0000
   7 C7           5.1142     0.9958     0.9997 C.ar         1    LIG   0.0000
   8 C8           6.5648     0.9993     1.0006 C.2          1    LIG   0.0000
   9 C9           7.2249     1.5697     0.0076 C.2          1    LIG   0.0000
  10 S10          6.5223     2.3566    -1.3632 S.3          1    LIG   0.0000
  11 C11          8.0282     2.7421    -2.1311 C.2          1    LIG   0.0000
  12 N12          9.0605     2.3671    -1.2622 N.am         1    LIG   0.0000
  13 C13          8.6616     1.6498    -0.1254 C.2          1    LIG   0.0000
  14 O14          9.4137     1.2088     0.7170 O.2          1    LIG   0.0000
  15 C15         10.3516     2.9029    -1.7399 C.3          1    LIG   0.0000
  16 C16         10.6462     4.1990    -1.0020 C.ar         1    LIG   0.0000
  17 C17          9.6717     5.1892    -0.9345 C.ar         1    LIG   0.0000
  18 C18          9.9500     6.3722    -0.2579 C.ar         1    LIG   0.0000
  19 C19         11.1920     6.5554     0.3425 C.ar         1    LIG   0.0000
  20 C20         12.1606     5.5595     0.2702 C.ar         1    LIG   0.0000
  21 C21         11.8906     4.3735    -0.4052 C.ar         1    LIG   0.0000
  22 C22         10.4605     3.2140    -3.2194 C.2          1    LIG   0.0000
  23 C23          9.3507     3.3687    -3.9263 C.2          1    LIG   0.0000
  24 N24          8.1079     3.1939    -3.2985 N.2          1    LIG   0.0000
  25 C25          9.3592     3.7157    -5.3385 C.ar         1    LIG   0.0000
  26 C26          8.2794     4.2662    -6.0256 C.ar         1    LIG   0.0000
  27 C27          8.3374     4.5693    -7.3819 C.ar         1    LIG   0.0000
  28 C28          9.5114     4.3162    -8.0836 C.ar         1    LIG   0.0000
  29 C29         10.6020     3.7680    -7.4175 C.ar         1    LIG   0.0000
  30 C30         10.5212     3.4723    -6.0610 C.ar         1    LIG   0.0000
  31 C31         11.7302     2.8674    -5.3635 C.3          1    LIG   0.0000
  32 C32         11.8064     3.3353    -3.9190 C.3          1    LIG   0.0000
  33 C33          4.4218    -0.2103     1.0045 C.ar         1    LIG   0.0000
  34 C34          3.0306    -0.2129     1.0053 C.ar         1    LIG   0.0000
  35 H           11.0666     2.2436    -1.5075 H            1    LIG   0.0000
  36 H           -1.5534    -1.0246     1.0092 H            1    LIG   0.0000
  37 H           -1.4049     0.3855     1.8193 H            1    LIG   0.0000
  38 H           -1.4049     0.3781     0.1863 H            1    LIG   0.0000
  39 H            0.6707    -0.7818     1.8246 H            1    LIG   0.0000
  40 H            0.6707    -0.7892     0.1916 H            1    LIG   0.0000
  41 H            2.5316     3.0760     0.9903 H            1    LIG   0.0000
  42 H            4.9288     3.0681     0.9919 H            1    LIG   0.0000
  43 H            7.0653     0.5701     1.7524 H            1    LIG   0.0000
  44 H            8.7809     5.0522    -1.3675 H            1    LIG   0.0000
  45 H            9.2574     7.0914    -0.2029 H            1    LIG   0.0000
  46 H           11.3891     7.4070     0.8282 H            1    LIG   0.0000
  47 H           13.0512     5.6962     0.7038 H            1    LIG   0.0000
  48 H           12.5833     3.6545    -0.4609 H            1    LIG   0.0000
  49 H            7.4328     4.4499    -5.5261 H            1    LIG   0.0000
  50 H            7.5449     4.9642    -7.8466 H            1    LIG   0.0000
  51 H            9.5707     4.5269    -9.0594 H            1    LIG   0.0000
  52 H           11.4490     3.5853    -7.9166 H            1    LIG   0.0000
  53 H           12.5611     3.1483    -5.8439 H            1    LIG   0.0000
  54 H           11.6553     1.8704    -5.3822 H            1    LIG   0.0000
  55 H           12.4771     2.7761    -3.4317 H            1    LIG   0.0000
  56 H           12.0955     4.2924    -3.9027 H            1    LIG   0.0000
  57 H            4.9237    -1.0752     1.0073 H            1    LIG   0.0000
  58 H            2.5260    -1.0763     1.0098 H            1    LIG   0.0000
@<TRIPOS>BOND
   1        1        2 1
   2        2        3 1
   3        3        4 1
   4        4        5 ar
   5        5        6 ar
   6        6        7 ar
   7        7        8 1
   8        8        9 2
   9        9       10 1
  10       10       11 1
  11       11       12 1
  12       12       13 am
  13       13        9 1
  14       13       14 2
  15       12       15 1
  16       15       16 1
  17       16       17 ar
  18       17       18 ar
  19       18       19 ar
  20       19       20 ar
  21       20       21 ar
  22       21       16 ar
  23       15       22 1
  24       22       23 2
  25       23       24 1
  26       24       11 2
  27       23       25 1
  28       25       26 ar
  29       26       27 ar
  30       27       28 ar
  31       28       29 ar
  32       29       30 ar
  33       30       25 ar
  34       30       31 1
  35       31       32 1
  36       32       22 1
  37        7       33 ar
  38       33       34 ar
  39       34        4 ar
  40       15       35 1
  41        1       36 1
  42        1       37 1
  43        1       38 1
  44        2       39 1
  45        2       40 1
  46        5       41 1
  47        6       42 1
  48        8       43 1
  49       17       44 1
  50       18       45 1
  51       19       46 1
  52       20       47 1
  53       21       48 1
  54       26       49 1
  55       27       50 1
  56       28       51 1
  57       29       52 1
  58       31       53 1
  59       31       54 1
  60       32       55 1
  61       32       56 1
  62       33       57 1
  63       34       58 1

@<TRIPOS>MOLECULE

  58   63
SMALL
USER_CHARGES
@<TRIPOS>ATOM
   1 C1          -1.1229    -0.1220     1.0051 C.3          1    LIG   0.0000
   2 C2           0.3887    -0.2817     1.0058 C.3          1    LIG   0.0000
   3 O3           1.0000     1.0000     1.0000 O.3          1    LIG   0.0000
   4 C4           2.3502     1.0000     1.0000 C.ar         1    LIG   0.0000
   5 C5           3.0338     2.2112     0.9945 C.ar         1    LIG   0.0000
   6 C6           4.4246     2.2046     0.9950 C.ar         1    LIG   0.0000
   7 C7           5.1142     0.9958     0.9997 C.ar         1    LIG   0.0000
   8 C8           6.5648     0.9993     1.0006 C.2          1    LIG   0.0000
   9 C9           7.2249     1.5697     0.0076 C.2          1    LIG   0.0000
  10 S10          6.5223     2.3566    -1.3632 S.3          1    LIG   0.0000
  11 C11          8.0282     2.7421    -2.1311 C.2          1    LIG   0.0000
  12 N12          9.0605     2.3671    -1.2622 N.am         1    LIG   0.0000
  13 C13          8.6616     1.6498    -0.1254 C.2          1    LIG   0.0000
  14 O14          9.4137     1.2088     0.7170 O.2          1    LIG   0.0000
  15 C15         10.3516     2.9029    -1.7399 C.3          1    LIG   0.0000
  16 C16         10.6462     4.1990    -1.0020 C.ar         1    LIG   0.0000
  17 C17         10.5553     4.2369     0.3855 C.ar         1    LIG   0.0000
  18 C18         10.8259     5.4270     1.0525 C.ar         1    LIG   0.0000
  19 C19         11.1833     6.5630     0.3326 C.ar         1    LIG   0.0000
  20 C20         11.2721     6.5159    -1.0548 C.ar         1    LIG   0.0000
  21 C21         11.0024     5.3296    -1.7298 C.ar         1    LIG   0.0000
  22 C22         10.4605     3.2140    -3.2194 C.2          1    LIG   0.0000
  23 C23          9.3507     3.3687    -3.9263 C.2          1    LIG   0.0000
  24 N24          8.1079     3.1939    -3.2985 N.2          1    LIG   0.0000
  25 C25          9.3592     3.7157    -5.3385 C.ar         1    LIG   0.0000
  26 C26          8.2794     4.2662    -6.0256 C.ar         1    LIG   0.0000
  27 C27          8.3374     4.5693    -7.3819 C.ar         1    LIG   0.0000
  28 C28          9.5114     4.3162    -8.0836 C.ar         1    LIG   0.0000
  29 C29         10.6020     3.7680    -7.4175 C.ar         1    LIG   0.0000
  30 C30         10.5212     3.4723    -6.0610 C.ar         1    LIG   0.0000
  31 C31         11.7302     2.8674    -5.3635 C.3          1    LIG   0.0000
  32 C32         11.8064     3.3353    -3.9190 C.3          1    LIG   0.0000
  33 C33          4.4218    -0.2103     1.0045 C.ar         1    LIG   0.0000
  34 C34          3.0306    -0.2129     1.0053 C.ar         1    LIG   0.0000
  35 H           11.0666     2.2436    -1.5075 H            1    LIG   0.0000
  36 H           -1.5534    -1.0246     1.0092 H            1    LIG   0.0000
  37 H           -1.4049     0.3855     1.8193 H            1    LIG   0.0000
  38 H           -1.4049     0.3781     0.1863 H            1    LIG   0.0000
  39 H            0.6707    -0.7818     1.8246 H            1    LIG   0.0000
  40 H            0.6707    -0.7892     0.1916 H            1    LIG   0.0000
  41 H            2.5316     3.0760     0.9903 H            1    LIG   0.0000
  42 H            4.9288     3.0681     0.9919 H            1    LIG   0.0000
  43 H            7.0653     0.5701     1.7524 H            1    LIG   0.0000
  44 H           10.2982     3.4174     0.8978 H            1    LIG   0.0000
  45 H           10.7636     5.4664     2.0498 H            1    LIG   0.0000
  46 H           11.3773     7.4172     0.8149 H            1    LIG   0.0000
  47 H           11.5298     7.3351    -1.5673 H            1    LIG   0.0000
  48 H           11.0639     5.2902    -2.7272 H            1    LIG   0.0000
  49 H            7.4328     4.4499    -5.5261 H            1    LIG   0.0000
  50 H            7.5449     4.9642    -7.8466 H            1    LIG   0.0000
  51 H            9.5707     4.5269    -9.0594 H            1    LIG   0.0000
  52 H           11.4490     3.5853    -7.9166 H            1    LIG   0.0000
  53 H           12.5611     3.1483    -5.8439 H            1    LIG   0.0000
  54 H           11.6553     1.8704    -5.3822 H            1    LIG   0.0000
  55 H           12.4771     2.7761    -3.4317 H            1    LIG   0.0000
  56 H           12.0955     4.2924    -3.9027 H            1    LIG   0.0000
  57 H            4.9237    -1.0752     1.0073 H            1    LIG   0.0000
  58 H            2.5260    -1.0763     1.0098 H            1    LIG   0.0000
@<TRIPOS>BOND
   1        1        2 1
   2        2        3 1
   3        3        4 1
   4        4        5 ar
   5        5        6 ar
   6        6        7 ar
   7        7        8 1
   8        8        9 2
   9        9       10 1
  10       10       11 1
  11       11       12 1
  12       12       13 am
  13       13        9 1
  14       13       14 2
  15       12       15 1
  16       15       16 1
  17       16       17 ar
  18       17       18 ar
  19       18       19 ar
  20       19       20 ar
  21       20       21 ar
  22       21       16 ar
  23       15       22 1
  24       22       23 2
  25       23       24 1
  26       24       11 2
  27       23       25 1
  28       25       26 ar
  29       26       27 ar
  30       27       28 ar
  31       28       29 ar
  32       29       30 ar
  33       30       25 ar
  34       30       31 1
  35       31       32 1
  36       32       22 1
  37        7       33 ar
  38       33       34 ar
  39       34        4 ar
  40       15       35 1
  41        1       36 1
  42        1       37 1
  43        1       38 1
  44        2       39 1
  45        2       40 1
  46        5       41 1
  47        6       42 1
  48        8       43 1
  49       17       44 1
  50       18       45 1
  51       19       46 1
  52       20       47 1
  53       21       48 1
  54       26       49 1
  55       27       50 1
  56       28       51 1
  57       29       52 1
  58       31       53 1
  59       31       54 1
  60       32       55 1
  61       32       56 1
  62       33       57 1
  63       34       58 1

@<TRIPOS>MOLECULE

  58   63
SMALL
USER_CHARGES
@<TRIPOS>ATOM
   1 C1           0.3952    -0.8525    -0.4029 C.3          1    LIG   0.0000
   2 C2           0.3887    -0.2817     1.0058 C.3          1    LIG   0.0000
   3 O3           1.0000     1.0000     1.0000 O.3          1    LIG   0.0000
   4 C4           2.3502     1.0000     1.0000 C.ar         1    LIG   0.0000
   5 C5           3.0338     2.2112     0.9945 C.ar         1    LIG   0.0000
   6 C6           4.4246     2.2046     0.9950 C.ar         1    LIG   0.0000
   7 C7           5.1142     0.9958     0.9997 C.ar         1    LIG   0.0000
   8 C8           6.5648     0.9993     1.0006 C.2          1    LIG   0.0000
   9 C9           7.2227     1.5678     0.0109 C.2          1    LIG   0.0000
  10 S10          6.4939     2.3524    -1.3368 S.3          1    LIG   0.0000
  11 C11          7.9703     2.7854    -2.1337 C.2          1    LIG   0.0000
  12 N12          9.0410     2.4046    -1.3249 N.am         1    LIG   0.0000
  13 C13          8.6455     1.6830    -0.1834 C.2          1    LIG   0.0000
  14 O14          9.4447     1.1920     0.5936 O.2          1    LIG   0.0000
  15 C15         10.3861     2.7589    -1.8208 C.3          1    LIG   0.0000
  16 C16         10.8231     3.9707    -1.0135 C.ar         1    LIG   0.0000
  17 C17         12.1414     4.0705    -0.5810 C.ar         1    LIG   0.0000
  18 C18         12.5324     5.1822     0.1577 C.ar         1    LIG   0.0000
  19 C19         11.6092     6.1796     0.4564 C.ar         1    LIG   0.0000
  20 C20         10.2929     6.0717     0.0195 C.ar         1    LIG   0.0000
  21 C21          9.8933     4.9626    -0.7193 C.ar         1    LIG   0.0000
  22 C22         10.3650     3.2233    -3.2749 C.2          1    LIG   0.0000
  23 C23          9.2262     3.5051    -3.9047 C.2          1    LIG   0.0000
  24 N24          7.9767     3.2795    -3.2936 N.2          1    LIG   0.0000
  25 C25          9.1672     3.9886    -5.2710 C.ar         1    LIG   0.0000
  26 C26          7.9651     3.9999    -5.9659 C.ar         1    LIG   0.0000
  27 C27          7.9432     4.4363    -7.2852 C.ar         1    LIG   0.0000
  28 C28          9.1118     4.8577    -7.9105 C.ar         1    LIG   0.0000
  29 C29         10.3135     4.8480    -7.2096 C.ar         1    LIG   0.0000
  30 C30         10.3402     4.4198    -5.8863 C.ar         1    LIG   0.0000
  31 C31         11.6469     4.4258    -5.1033 C.3          1    LIG   0.0000
  32 C32         11.6929     3.3649    -4.0075 C.3          1    LIG   0.0000
  33 C33          4.4218    -0.2103     1.0045 C.ar         1    LIG   0.0000
  34 C34          3.0306    -0.2129     1.0053 C.ar         1    LIG   0.0000
  35 H           11.0240     1.9986    -1.6978 H            1    LIG   0.0000
  36 H           -0.0354    -1.7551    -0.3988 H            1    LIG   0.0000
  37 H           -0.1132    -0.2434    -1.0117 H            1    LIG   0.0000
  38 H            1.3383    -0.9345    -0.7250 H            1    LIG   0.0000
  39 H           -0.5545    -0.1996     1.3279 H            1    LIG   0.0000
  40 H            0.8970    -0.8907     1.6146 H            1    LIG   0.0000
  41 H            2.5316     3.0760     0.9903 H            1    LIG   0.0000
  42 H            4.9288     3.0681     0.9919 H            1    LIG   0.0000
  43 H            7.0653     0.5701     1.7524 H            1    LIG   0.0000
  44 H           12.8007     3.3508    -0.7988 H            1    LIG   0.0000
  45 H           13.4774     5.2648     0.4742 H            1    LIG   0.0000
  46 H           11.8933     6.9778     0.9876 H            1    LIG   0.0000
  47 H            9.6336     6.7916     0.2366 H            1    LIG   0.0000
  48 H            8.9482     4.8795    -1.0353 H            1    LIG   0.0000
  49 H            7.1224     3.6967    -5.5210 H            1    LIG   0.0000
  50 H            7.0796     4.4474    -7.7892 H            1    LIG   0.0000
  51 H            9.0883     5.1667    -8.8612 H            1    LIG   0.0000
  52 H           11.1563     5.1484    -7.6561 H            1    LIG   0.0000
  53 H           11.7607     5.3249    -4.6808 H            1    LIG   0.0000
  54 H           12.4001     4.2589    -5.7397 H            1    LIG   0.0000
  55 H           11.9252     2.4853    -4.4226 H            1    LIG   0.0000
  56 H           12.3986     3.6180    -3.3458 H            1    LIG   0.0000
  57 H            4.9237    -1.0752     1.0073 H            1    LIG   0.0000
  58 H            2.5260    -1.0763     1.0098 H            1    LIG   0.0000
@<TRIPOS>BOND
   1        1        2 1
   2        2        3 1
   3        3        4 1
   4        4        5 ar
   5        5        6 ar
   6        6        7 ar
   7        7        8 1
   8        8        9 2
   9        9       10 1
  10       10       11 1
  11       11       12 1
  12       12       13 am
  13       13        9 1
  14       13       14 2
  15       12       15 1
  16       15       16 1
  17       16       17 ar
  18       17       18 ar
  19       18       19 ar
  20       19       20 ar
  21       20       21 ar
  22       21       16 ar
  23       15       22 1
  24       22       23 2
  25       23       24 1
  26       24       11 2
  27       23       25 1
  28       25       26 ar
  29       26       27 ar
  30       27       28 ar
  31       28       29 ar
  32       29       30 ar
  33       30       25 ar
  34       30       31 1
  35       31       32 1
  36       32       22 1
  37        7       33 ar
  38       33       34 ar
  39       34        4 ar
  40       15       35 1
  41        1       36 1
  42        1       37 1
  43        1       38 1
  44        2       39 1
  45        2       40 1
  46        5       41 1
  47        6       42 1
  48        8       43 1
  49       17       44 1
  50       18       45 1
  51       19       46 1
  52       20       47 1
  53       21       48 1
  54       26       49 1
  55       27       50 1
  56       28       51 1
  57       29       52 1
  58       31       53 1
  59       31       54 1
  60       32       55 1
  61       32       56 1
  62       33       57 1
  63       34       58 1

@<TRIPOS>MOLECULE

  58   63
SMALL
USER_CHARGES
@<TRIPOS>ATOM
   1 C1           0.3952    -0.8525    -0.4029 C.3          1    LIG   0.0000
   2 C2           0.3887    -0.2817     1.0058 C.3          1    LIG   0.0000
   3 O3           1.0000     1.0000     1.0000 O.3          1    LIG   0.0000
   4 C4           2.3502     1.0000     1.0000 C.ar         1    LIG   0.0000
   5 C5           3.0338     2.2112     0.9945 C.ar         1    LIG   0.0000
   6 C6           4.4246     2.2046     0.9950 C.ar         1    LIG   0.0000
   7 C7           5.1142     0.9958     0.9997 C.ar         1    LIG   0.0000
   8 C8           6.5648     0.9993     1.0006 C.2          1    LIG   0.0000
   9 C9           7.2227     1.5678     0.0109 C.2          1    LIG   0.0000
  10 S10          6.4939     2.3524    -1.3368 S.3          1    LIG   0.0000
  11 C11          7.9703     2.7854    -2.1337 C.2          1    LIG   0.0000
  12 N12          9.0410     2.4046    -1.3249 N.am         1    LIG   0.0000
  13 C13          8.6455     1.6830    -0.1834 C.2          1    LIG   0.0000
  14 O14          9.4447     1.1920     0.5936 O.2          1    LIG   0.0000
  15 C15         10.3861     2.7589    -1.8208 C.3          1    LIG   0.0000
  16 C16         10.8231     3.9707    -1.0135 C.ar         1    LIG   0.0000
  17 C17          9.9681     5.0611    -0.8917 C.ar         1    LIG   0.0000
  18 C18         10.3763     6.1659    -0.1518 C.ar         1    LIG   0.0000
  19 C19         11.6276     6.1726     0.4571 C.ar         1    LIG   0.0000
  20 C20         12.4760     5.0776     0.3301 C.ar         1    LIG   0.0000
  21 C21         12.0758     3.9687    -0.4087 C.ar         1    LIG   0.0000
  22 C22         10.3650     3.2233    -3.2749 C.2          1    LIG   0.0000
  23 C23          9.2262     3.5051    -3.9047 C.2          1    LIG   0.0000
  24 N24          7.9767     3.2795    -3.2936 N.2          1    LIG   0.0000
  25 C25          9.1672     3.9886    -5.2710 C.ar         1    LIG   0.0000
  26 C26          7.9651     3.9999    -5.9659 C.ar         1    LIG   0.0000
  27 C27          7.9432     4.4363    -7.2852 C.ar         1    LIG   0.0000
  28 C28          9.1118     4.8577    -7.9105 C.ar         1    LIG   0.0000
  29 C29         10.3135     4.8480    -7.2096 C.ar         1    LIG   0.0000
  30 C30         10.3402     4.4198    -5.8863 C.ar         1    LIG   0.0000
  31 C31         11.6469     4.4258    -5.1033 C.3          1    LIG   0.0000
  32 C32         11.6929     3.3649    -4.0075 C.3          1    LIG   0.0000
  33 C33          4.4218    -0.2103     1.0045 C.ar         1    LIG   0.0000
  34 C34          3.0306    -0.2129     1.0053 C.ar         1    LIG   0.0000
  35 H           11.0240     1.9986    -1.6978 H            1    LIG   0.0000
  36 H           -0.0354    -1.7551    -0.3988 H            1    LIG   0.0000
  37 H           -0.1132    -0.2434    -1.0117 H            1    LIG   0.0000
  38 H            1.3383    -0.9345    -0.7250 H            1    LIG   0.0000
  39 H           -0.5545    -0.1996     1.3279 H            1    LIG   0.0000
  40 H            0.8970    -0.8907     1.6146 H            1    LIG   0.0000
  41 H            2.5316     3.0760     0.9903 H            1    LIG   0.0000
  42 H            4.9288     3.0681     0.9919 H            1    LIG   0.0000
  43 H            7.0653     0.5701     1.7524 H            1    LIG   0.0000
  44 H            9.0699     5.0508    -1.3311 H            1    LIG   0.0000
  45 H            9.7703     6.9558    -0.0574 H            1    LIG   0.0000
  46 H           11.9182     6.9683     0.9884 H            1    LIG   0.0000
  47 H           13.3740     5.0874     0.7701 H            1    LIG   0.0000
  48 H           12.6819     3.1791    -0.5039 H            1    LIG   0.0000
  49 H            7.1224     3.6967    -5.5210 H            1    LIG   0.0000
  50 H            7.0796     4.4474    -7.7892 H            1    LIG   0.0000
  51 H            9.0883     5.1667    -8.8612 H            1    LIG   0.0000
  52 H           11.1563     5.1484    -7.6561 H            1    LIG   0.0000
  53 H           11.7607     5.3249    -4.6808 H            1    LIG   0.0000
  54 H           12.4001     4.2589    -5.7397 H            1    LIG   0.0000
  55 H           11.9252     2.4853    -4.4226 H            1    LIG   0.0000
  56 H           12.3986     3.6180    -3.3458 H            1    LIG   0.0000
  57 H            4.9237    -1.0752     1.0073 H            1    LIG   0.0000
  58 H            2.5260    -1.0763     1.0098 H            1    LIG   0.0000
@<TRIPOS>BOND
   1        1        2 1
   2        2        3 1
   3        3        4 1
   4        4        5 ar
   5        5        6 ar
   6        6        7 ar
   7        7        8 1
   8        8        9 2
   9        9       10 1
  10       10       11 1
  11       11       12 1
  12       12       13 am
  13       13        9 1
  14       13       14 2
  15       12       15 1
  16       15       16 1
  17       16       17 ar
  18       17       18 ar
  19       18       19 ar
  20       19       20 ar
  21       20       21 ar
  22       21       16 ar
  23       15       22 1
  24       22       23 2
  25       23       24 1
  26       24       11 2
  27       23       25 1
  28       25       26 ar
  29       26       27 ar
  30       27       28 ar
  31       28       29 ar
  32       29       30 ar
  33       30       25 ar
  34       30       31 1
  35       31       32 1
  36       32       22 1
  37        7       33 ar
  38       33       34 ar
  39       34        4 ar
  40       15       35 1
  41        1       36 1
  42        1       37 1
  43        1       38 1
  44        2       39 1
  45        2       40 1
  46        5       41 1
  47        6       42 1
  48        8       43 1
  49       17       44 1
  50       18       45 1
  51       19       46 1
  52       20       47 1
  53       21       48 1
  54       26       49 1
  55       27       50 1
  56       28       51 1
  57       29       52 1
  58       31       53 1
  59       31       54 1
  60       32       55 1
  61       32       56 1
  62       33       57 1
  63       34       58 1

@<TRIPOS>MOLECULE

  58   63
SMALL
USER_CHARGES
@<TRIPOS>ATOM
   1 C1           0.3952    -0.8525    -0.4029 C.3          1    LIG   0.0000
   2 C2           0.3887    -0.2817     1.0058 C.3          1    LIG   0.0000
   3 O3           1.0000     1.0000     1.0000 O.3          1    LIG   0.0000
   4 C4           2.3502     1.0000     1.0000 C.ar         1    LIG   0.0000
   5 C5           3.0338     2.2112     0.9945 C.ar         1    LIG   0.0000
   6 C6           4.4246     2.2046     0.9950 C.ar         1    LIG   0.0000
   7 C7           5.1142     0.9958     0.9997 C.ar         1    LIG   0.0000
   8 C8           6.5648     0.9993     1.0006 C.2          1    LIG   0.0000
   9 C9           7.2227     1.5678     0.0109 C.2          1    LIG   0.0000
  10 S10          6.4939     2.3524    -1.3368 S.3          1    LIG   0.0000
  11 C11          7.9703     2.7854    -2.1337 C.2          1    LIG   0.0000
  12 N12          9.0410     2.4046    -1.3249 N.am         1    LIG   0.0000
  13 C13          8.6455     1.6830    -0.1834 C.2          1    LIG   0.0000
  14 O14          9.4447     1.1920     0.5936 O.2          1    LIG   0.0000
  15 C15         10.3861     2.7589    -1.8208 C.3          1    LIG   0.0000
  16 C16         10.8231     3.9707    -1.0135 C.ar         1    LIG   0.0000
  17 C17         10.7291     3.9435     0.3740 C.ar         1    LIG   0.0000
  18 C18         11.1305     5.0568     1.1048 C.ar         1    LIG   0.0000
  19 C19         11.6199     6.1816     0.4476 C.ar         1    LIG   0.0000
  20 C20         11.7106     6.2000    -0.9404 C.ar         1    LIG   0.0000
  21 C21         11.3107     5.0908    -1.6789 C.ar         1    LIG   0.0000
  22 C22         10.3650     3.2233    -3.2749 C.2          1    LIG   0.0000
  23 C23          9.2262     3.5051    -3.9047 C.2          1    LIG   0.0000
  24 N24          7.9767     3.2795    -3.2936 N.2          1    LIG   0.0000
  25 C25          9.1672     3.9886    -5.2710 C.ar         1    LIG   0.0000
  26 C26          7.9651     3.9999    -5.9659 C.ar         1    LIG   0.0000
  27 C27          7.9432     4.4363    -7.2852 C.ar         1    LIG   0.0000
  28 C28          9.1118     4.8577    -7.9105 C.ar         1    LIG   0.0000
  29 C29         10.3135     4.8480    -7.2096 C.ar         1    LIG   0.0000
  30 C30         10.3402     4.4198    -5.8863 C.ar         1    LIG   0.0000
  31 C31         11.6469     4.4258    -5.1033 C.3          1    LIG   0.0000
  32 C32         11.6929     3.3649    -4.0075 C.3          1    LIG   0.0000
  33 C33          4.4218    -0.2103     1.0045 C.ar         1    LIG   0.0000
  34 C34          3.0306    -0.2129     1.0053 C.ar         1    LIG   0.0000
  35 H           11.0240     1.9986    -1.6978 H            1    LIG   0.0000
  36 H           -0.0354    -1.7551    -0.3988 H            1    LIG   0.0000
  37 H           -0.1132    -0.2434    -1.0117 H            1    LIG   0.0000
  38 H            1.3383    -0.9345    -0.7250 H            1    LIG   0.0000
  39 H           -0.5545    -0.1996     1.3279 H            1    LIG   0.0000
  40 H            0.8970    -0.8907     1.6146 H            1    LIG   0.0000
  41 H            2.5316     3.0760     0.9903 H            1    LIG   0.0000
  42 H            4.9288     3.0681     0.9919 H            1    LIG   0.0000
  43 H            7.0653     0.5701     1.7524 H            1    LIG   0.0000
  44 H           10.3769     3.1324     0.8410 H            1    LIG   0.0000
  45 H           11.0674     5.0490     2.1027 H            1    LIG   0.0000
  46 H           11.9077     6.9806     0.9757 H            1    LIG   0.0000
  47 H           12.0634     7.0107    -1.4075 H            1    LIG   0.0000
  48 H           11.3730     5.0987    -2.6769 H            1    LIG   0.0000
  49 H            7.1224     3.6967    -5.5210 H            1    LIG   0.0000
  50 H            7.0796     4.4474    -7.7892 H            1    LIG   0.0000
  51 H            9.0883     5.1667    -8.8612 H            1    LIG   0.0000
  52 H           11.1563     5.1484    -7.6561 H            1    LIG   0.0000
  53 H           11.7607     5.3249    -4.6808 H            1    LIG   0.0000
  54 H           12.4001     4.2589    -5.7397 H            1    LIG   0.0000
  55 H           11.9252     2.4853    -4.4226 H            1    LIG   0.0000
  56 H           12.3986     3.6180    -3.3458 H            1    LIG   0.0000
  57 H            4.9237    -1.0752     1.0073 H            1    LIG   0.0000
  58 H            2.5260    -1.0763     1.0098 H            1    LIG   0.0000
@<TRIPOS>BOND
   1        1        2 1
   2        2        3 1
   3        3        4 1
   4        4        5 ar
   5        5        6 ar
   6        6        7 ar
   7        7        8 1
   8        8        9 2
   9        9       10 1
  10       10       11 1
  11       11       12 1
  12       12       13 am
  13       13        9 1
  14       13       14 2
  15       12       15 1
  16       15       16 1
  17       16       17 ar
  18       17       18 ar
  19       18       19 ar
  20       19       20 ar
  21       20       21 ar
  22       21       16 ar
  23       15       22 1
  24       22       23 2
  25       23       24 1
  26       24       11 2
  27       23       25 1
  28       25       26 ar
  29       26       27 ar
  30       27       28 ar
  31       28       29 ar
  32       29       30 ar
  33       30       25 ar
  34       30       31 1
  35       31       32 1
  36       32       22 1
  37        7       33 ar
  38       33       34 ar
  39       34        4 ar
  40       15       35 1
  41        1       36 1
  42        1       37 1
  43        1       38 1
  44        2       39 1
  45        2       40 1
  46        5       41 1
  47        6       42 1
  48        8       43 1
  49       17       44 1
  50       18       45 1
  51       19       46 1
  52       20       47 1
  53       21       48 1
  54       26       49 1
  55       27       50 1
  56       28       51 1
  57       29       52 1
  58       31       53 1
  59       31       54 1
  60       32       55 1
  61       32       56 1
  62       33       57 1
  63       34       58 1

@<TRIPOS>MOLECULE

  58   63
SMALL
USER_CHARGES
@<TRIPOS>ATOM
   1 C1          -1.1229    -0.1220     1.0051 C.3          1    LIG   0.0000
   2 C2           0.3887    -0.2817     1.0058 C.3          1    LIG   0.0000
   3 O3           1.0000     1.0000     1.0000 O.3          1    LIG   0.0000
   4 C4           2.3502     1.0000     1.0000 C.ar         1    LIG   0.0000
   5 C5           3.0338     2.2112     0.9945 C.ar         1    LIG   0.0000
   6 C6           4.4246     2.2046     0.9950 C.ar         1    LIG   0.0000
   7 C7           5.1142     0.9958     0.9997 C.ar         1    LIG   0.0000
   8 C8           6.5648     0.9993     1.0006 C.2          1    LIG   0.0000
   9 C9           7.2216     1.5669     0.0125 C.2          1    LIG   0.0000
  10 S10          6.4349     2.3970    -1.2974 S.3          1    LIG   0.0000
  11 C11          7.9213     2.7309    -2.1144 C.2          1    LIG   0.0000
  12 N12          9.0064     2.3375    -1.2880 N.am         1    LIG   0.0000
  13 C13          8.6574     1.6542    -0.1332 C.2          1    LIG   0.0000
  14 O14          9.4645     1.1421     0.6444 O.2          1    LIG   0.0000
  15 C15         10.2944     2.8039    -1.8103 C.3          1    LIG   0.0000
  16 C16         10.6656     4.0881    -1.0862 C.ar         1    LIG   0.0000
  17 C17         11.2455     5.1349    -1.7952 C.ar         1    LIG   0.0000
  18 C18         11.5826     6.3059    -1.1247 C.ar         1    LIG   0.0000
  19 C19         11.3389     6.4214     0.2405 C.ar         1    LIG   0.0000
  20 C20         10.7584     5.3695     0.9416 C.ar         1    LIG   0.0000
  21 C21         10.4187     4.1944     0.2786 C.ar         1    LIG   0.0000
  22 C22         10.3181     3.0789    -3.3066 C.2          1    LIG   0.0000
  23 C23          9.1659     3.3095    -3.9313 C.2          1    LIG   0.0000
  24 N24          7.9217     3.1695    -3.3105 N.2          1    LIG   0.0000
  25 C25          9.1617     3.6156    -5.3461 C.ar         1    LIG   0.0000
  26 C26          7.9570     3.5744    -6.0391 C.ar         1    LIG   0.0000
  27 C27          7.9195     3.8571    -7.4004 C.ar         1    LIG   0.0000
  28 C28          9.0970     4.1848    -8.0643 C.ar         1    LIG   0.0000
  29 C29         10.3056     4.2302    -7.3791 C.ar         1    LIG   0.0000
  30 C30         10.3376     3.9467    -6.0148 C.ar         1    LIG   0.0000
  31 C31         11.6501     4.0093    -5.2498 C.3          1    LIG   0.0000
  32 C32         11.6609     3.1013    -4.0260 C.3          1    LIG   0.0000
  33 C33          4.4218    -0.2103     1.0045 C.ar         1    LIG   0.0000
  34 C34          3.0306    -0.2129     1.0053 C.ar         1    LIG   0.0000
  35 H           10.9878     2.1132    -1.6048 H            1    LIG   0.0000
  36 H           -1.5534    -1.0246     1.0092 H            1    LIG   0.0000
  37 H           -1.4049     0.3855     1.8193 H            1    LIG   0.0000
  38 H           -1.4049     0.3781     0.1863 H            1    LIG   0.0000
  39 H            0.6707    -0.7818     1.8246 H            1    LIG   0.0000
  40 H            0.6707    -0.7892     0.1916 H            1    LIG   0.0000
  41 H            2.5316     3.0760     0.9903 H            1    LIG   0.0000
  42 H            4.9288     3.0681     0.9919 H            1    LIG   0.0000
  43 H            7.0653     0.5701     1.7524 H            1    LIG   0.0000
  44 H           11.4181     5.0465    -2.7763 H            1    LIG   0.0000
  45 H           12.0002     7.0652    -1.6238 H            1    LIG   0.0000
  46 H           11.5823     7.2646     0.7199 H            1    LIG   0.0000
  47 H           10.5850     5.4579     1.9225 H            1    LIG   0.0000
  48 H           10.0018     3.4348     0.7777 H            1    LIG   0.0000
  49 H            7.1132     3.3404    -5.5563 H            1    LIG   0.0000
  50 H            7.0527     3.8250    -7.8980 H            1    LIG   0.0000
  51 H            9.0739     4.3895    -9.0429 H            1    LIG   0.0000
  52 H           11.1486     4.4653    -7.8629 H            1    LIG   0.0000
  53 H           11.8014     4.9514    -4.9505 H            1    LIG   0.0000
  54 H           12.3906     3.7308    -5.8614 H            1    LIG   0.0000
  55 H           11.8840     2.1714    -4.3183 H            1    LIG   0.0000
  56 H           12.3603     3.4278    -3.3903 H            1    LIG   0.0000
  57 H            4.9237    -1.0752     1.0073 H            1    LIG   0.0000
  58 H            2.5260    -1.0763     1.0098 H            1    LIG   0.0000
@<TRIPOS>BOND
   1        1        2 1
   2        2        3 1
   3        3        4 1
   4        4        5 ar
   5        5        6 ar
   6        6        7 ar
   7        7        8 1
   8        8        9 2
   9        9       10 1
  10       10       11 1
  11       11       12 1
  12       12       13 am
  13       13        9 1
  14       13       14 2
  15       12       15 1
  16       15       16 1
  17       16       17 ar
  18       17       18 ar
  19       18       19 ar
  20       19       20 ar
  21       20       21 ar
  22       21       16 ar
  23       15       22 1
  24       22       23 2
  25       23       24 1
  26       24       11 2
  27       23       25 1
  28       25       26 ar
  29       26       27 ar
  30       27       28 ar
  31       28       29 ar
  32       29       30 ar
  33       30       25 ar
  34       30       31 1
  35       31       32 1
  36       32       22 1
  37        7       33 ar
  38       33       34 ar
  39       34        4 ar
  40       15       35 1
  41        1       36 1
  42        1       37 1
  43        1       38 1
  44        2       39 1
  45        2       40 1
  46        5       41 1
  47        6       42 1
  48        8       43 1
  49       17       44 1
  50       18       45 1
  51       19       46 1
  52       20       47 1
  53       21       48 1
  54       26       49 1
  55       27       50 1
  56       28       51 1
  57       29       52 1
  58       31       53 1
  59       31       54 1
  60       32       55 1
  61       32       56 1
  62       33       57 1
  63       34       58 1

@<TRIPOS>MOLECULE

  58   63
SMALL
USER_CHARGES
@<TRIPOS>ATOM
   1 C1          -1.1229    -0.1220     1.0051 C.3          1    LIG   0.0000
   2 C2           0.3887    -0.2817     1.0058 C.3          1    LIG   0.0000
   3 O3           1.0000     1.0000     1.0000 O.3          1    LIG   0.0000
   4 C4           2.3502     1.0000     1.0000 C.ar         1    LIG   0.0000
   5 C5           3.0338     2.2112     0.9945 C.ar         1    LIG   0.0000
   6 C6           4.4246     2.2046     0.9950 C.ar         1    LIG   0.0000
   7 C7           5.1142     0.9958     0.9997 C.ar         1    LIG   0.0000
   8 C8           6.5648     0.9993     1.0006 C.2          1    LIG   0.0000
   9 C9           7.2237     1.5767     1.9903 C.2          1    LIG   0.0000
  10 S10          6.5193     2.3675     3.3580 S.3          1    LIG   0.0000
  11 C11          8.0241     2.8460     4.0741 C.2          1    LIG   0.0000
  12 N12          9.0578     2.2852     3.3137 N.am         1    LIG   0.0000
  13 C13          8.6602     1.6578     2.1246 C.2          1    LIG   0.0000
  14 O14          9.4135     1.1518     1.3206 O.2          1    LIG   0.0000
  15 C15         10.3491     2.4363     4.0151 C.3          1    LIG   0.0000
  16 C16         10.6499     1.1505     4.7683 C.ar         1    LIG   0.0000
  17 C17         11.9498     0.6562     4.7943 C.ar         1    LIG   0.0000
  18 C18         12.2160    -0.5212     5.4852 C.ar         1    LIG   0.0000
  19 C19         11.1877    -1.1915     6.1409 C.ar         1    LIG   0.0000
  20 C20          9.8906    -0.6898     6.1097 C.ar         1    LIG   0.0000
  21 C21          9.6157     0.4870     5.4204 C.ar         1    LIG   0.0000
  22 C22         10.4545     3.5625     5.0241 C.2          1    LIG   0.0000
  23 C23          9.3430     4.0928     5.5128 C.2          1    LIG   0.0000
  24 N24          8.1016     3.6314     5.0489 N.2          1    LIG   0.0000
  25 C25          9.3484     5.1423     6.5195 C.ar         1    LIG   0.0000
  26 C26          8.2682     5.4577     7.3410 C.ar         1    LIG   0.0000
  27 C27          8.3231     6.4809     8.2815 C.ar         1    LIG   0.0000
  28 C28          9.4942     7.2200     8.4119 C.ar         1    LIG   0.0000
  29 C29         10.5851     6.9217     7.6028 C.ar         1    LIG   0.0000
  30 C30         10.5075     5.8945     6.6686 C.ar         1    LIG   0.0000
  31 C31         11.7168     5.5979     5.7946 C.3          1    LIG   0.0000
  32 C32         11.7987     4.1133     5.4775 C.3          1    LIG   0.0000
  33 C33          4.4218    -0.2103     1.0045 C.ar         1    LIG   0.0000
  34 C34          3.0306    -0.2129     1.0053 C.ar         1    LIG   0.0000
  35 H           11.0628     2.5677     3.3271 H            1    LIG   0.0000
  36 H           -1.5534    -1.0246     1.0092 H            1    LIG   0.0000
  37 H           -1.4049     0.3855     1.8193 H            1    LIG   0.0000
  38 H           -1.4049     0.3781     0.1863 H            1    LIG   0.0000
  39 H            0.6707    -0.7818     1.8246 H            1    LIG   0.0000
  40 H            0.6707    -0.7892     0.1916 H            1    LIG   0.0000
  41 H            2.5316     3.0760     0.9903 H            1    LIG   0.0000
  42 H            4.9288     3.0681     0.9919 H            1    LIG   0.0000
  43 H            7.0663     0.5648     0.2524 H            1    LIG   0.0000
  44 H           12.6850     1.1422     4.3216 H            1    LIG   0.0000
  45 H           13.1466    -0.8863     5.5107 H            1    LIG   0.0000
  46 H           11.3822    -2.0378     6.6368 H            1    LIG   0.0000
  47 H            9.1555    -1.1753     6.5830 H            1    LIG   0.0000
  48 H            8.6850     0.8518     5.3941 H            1    LIG   0.0000
  49 H            7.4237     4.9297     7.2512 H            1    LIG   0.0000
  50 H            7.5304     6.6827     8.8568 H            1    LIG   0.0000
  51 H            9.5512     7.9600     9.0821 H            1    LIG   0.0000
  52 H           11.4301     7.4488     7.6932 H            1    LIG   0.0000
  53 H           12.5470     5.8768     6.2771 H            1    LIG   0.0000
  54 H           11.6388     6.1122     4.9406 H            1    LIG   0.0000
  55 H           12.4691     3.9735     4.7488 H            1    LIG   0.0000
  56 H           12.0907     3.6218     6.2980 H            1    LIG   0.0000
  57 H            4.9237    -1.0752     1.0073 H            1    LIG   0.0000
  58 H            2.5260    -1.0763     1.0098 H            1    LIG   0.0000
@<TRIPOS>BOND
   1        1        2 1
   2        2        3 1
   3        3        4 1
   4        4        5 ar
   5        5        6 ar
   6        6        7 ar
   7        7        8 1
   8        8        9 2
   9        9       10 1
  10       10       11 1
  11       11       12 1
  12       12       13 am
  13       13        9 1
  14       13       14 2
  15       12       15 1
  16       15       16 1
  17       16       17 ar
  18       17       18 ar
  19       18       19 ar
  20       19       20 ar
  21       20       21 ar
  22       21       16 ar
  23       15       22 1
  24       22       23 2
  25       23       24 1
  26       24       11 2
  27       23       25 1
  28       25       26 ar
  29       26       27 ar
  30       27       28 ar
  31       28       29 ar
  32       29       30 ar
  33       30       25 ar
  34       30       31 1
  35       31       32 1
  36       32       22 1
  37        7       33 ar
  38       33       34 ar
  39       34        4 ar
  40       15       35 1
  41        1       36 1
  42        1       37 1
  43        1       38 1
  44        2       39 1
  45        2       40 1
  46        5       41 1
  47        6       42 1
  48        8       43 1
  49       17       44 1
  50       18       45 1
  51       19       46 1
  52       20       47 1
  53       21       48 1
  54       26       49 1
  55       27       50 1
  56       28       51 1
  57       29       52 1
  58       31       53 1
  59       31       54 1
  60       32       55 1
  61       32       56 1
  62       33       57 1
  63       34       58 1

@<TRIPOS>MOLECULE

  58   63
SMALL
USER_CHARGES
@<TRIPOS>ATOM
   1 C1          -1.1229    -0.1220     1.0051 C.3          1    LIG   0.0000
   2 C2           0.3887    -0.2817     1.0058 C.3          1    LIG   0.0000
   3 O3           1.0000     1.0000     1.0000 O.3          1    LIG   0.0000
   4 C4           2.3502     1.0000     1.0000 C.ar         1    LIG   0.0000
   5 C5           3.0338     2.2112     0.9945 C.ar         1    LIG   0.0000
   6 C6           4.4246     2.2046     0.9950 C.ar         1    LIG   0.0000
   7 C7           5.1142     0.9958     0.9997 C.ar         1    LIG   0.0000
   8 C8           6.5648     0.9993     1.0006 C.2          1    LIG   0.0000
   9 C9           7.2237     1.5767     1.9903 C.2          1    LIG   0.0000
  10 S10          6.5193     2.3675     3.3580 S.3          1    LIG   0.0000
  11 C11          8.0241     2.8460     4.0741 C.2          1    LIG   0.0000
  12 N12          9.0578     2.2852     3.3137 N.am         1    LIG   0.0000
  13 C13          8.6602     1.6578     2.1246 C.2          1    LIG   0.0000
  14 O14          9.4135     1.1518     1.3206 O.2          1    LIG   0.0000
  15 C15         10.3491     2.4363     4.0151 C.3          1    LIG   0.0000
  16 C16         10.6499     1.1505     4.7683 C.ar         1    LIG   0.0000
  17 C17          9.6786     0.5929     5.5932 C.ar         1    LIG   0.0000
  18 C18          9.9625    -0.5834     6.2791 C.ar         1    LIG   0.0000
  19 C19         11.2068    -1.1898     6.1361 C.ar         1    LIG   0.0000
  20 C20         12.1721    -0.6253     5.3088 C.ar         1    LIG   0.0000
  21 C21         11.8965     0.5515     4.6196 C.ar         1    LIG   0.0000
  22 C22         10.4545     3.5625     5.0241 C.2          1    LIG   0.0000
  23 C23          9.3430     4.0928     5.5128 C.2          1    LIG   0.0000
  24 N24          8.1016     3.6314     5.0489 N.2          1    LIG   0.0000
  25 C25          9.3484     5.1423     6.5195 C.ar         1    LIG   0.0000
  26 C26          8.2682     5.4577     7.3410 C.ar         1    LIG   0.0000
  27 C27          8.3231     6.4809     8.2815 C.ar         1    LIG   0.0000
  28 C28          9.4942     7.2200     8.4119 C.ar         1    LIG   0.0000
  29 C29         10.5851     6.9217     7.6028 C.ar         1    LIG   0.0000
  30 C30         10.5075     5.8945     6.6686 C.ar         1    LIG   0.0000
  31 C31         11.7168     5.5979     5.7946 C.3          1    LIG   0.0000
  32 C32         11.7987     4.1133     5.4775 C.3          1    LIG   0.0000
  33 C33          4.4218    -0.2103     1.0045 C.ar         1    LIG   0.0000
  34 C34          3.0306    -0.2129     1.0053 C.ar         1    LIG   0.0000
  35 H           11.0628     2.5677     3.3271 H            1    LIG   0.0000
  36 H           -1.5534    -1.0246     1.0092 H            1    LIG   0.0000
  37 H           -1.4049     0.3855     1.8193 H            1    LIG   0.0000
  38 H           -1.4049     0.3781     0.1863 H            1    LIG   0.0000
  39 H            0.6707    -0.7818     1.8246 H            1    LIG   0.0000
  40 H            0.6707    -0.7892     0.1916 H            1    LIG   0.0000
  41 H            2.5316     3.0760     0.9903 H            1    LIG   0.0000
  42 H            4.9288     3.0681     0.9919 H            1    LIG   0.0000
  43 H            7.0663     0.5648     0.2524 H            1    LIG   0.0000
  44 H            8.7860     1.0328     5.6920 H            1    LIG   0.0000
  45 H            9.2722    -0.9934     6.8752 H            1    LIG   0.0000
  46 H           11.4080    -2.0354     6.6306 H            1    LIG   0.0000
  47 H           13.0645    -1.0655     5.2093 H            1    LIG   0.0000
  48 H           12.5869     0.9621     4.0241 H            1    LIG   0.0000
  49 H            7.4237     4.9297     7.2512 H            1    LIG   0.0000
  50 H            7.5304     6.6827     8.8568 H            1    LIG   0.0000
  51 H            9.5512     7.9600     9.0821 H            1    LIG   0.0000
  52 H           11.4301     7.4488     7.6932 H            1    LIG   0.0000
  53 H           12.5470     5.8768     6.2771 H            1    LIG   0.0000
  54 H           11.6388     6.1122     4.9406 H            1    LIG   0.0000
  55 H           12.4691     3.9735     4.7488 H            1    LIG   0.0000
  56 H           12.0907     3.6218     6.2980 H            1    LIG   0.0000
  57 H            4.9237    -1.0752     1.0073 H            1    LIG   0.0000
  58 H            2.5260    -1.0763     1.0098 H            1    LIG   0.0000
@<TRIPOS>BOND
   1        1        2 1
   2        2        3 1
   3        3        4 1
   4        4        5 ar
   5        5        6 ar
   6        6        7 ar
   7        7        8 1
   8        8        9 2
   9        9       10 1
  10       10       11 1
  11       11       12 1
  12       12       13 am
  13       13        9 1
  14       13       14 2
  15       12       15 1
  16       15       16 1
  17       16       17 ar
  18       17       18 ar
  19       18       19 ar
  20       19       20 ar
  21       20       21 ar
  22       21       16 ar
  23       15       22 1
  24       22       23 2
  25       23       24 1
  26       24       11 2
  27       23       25 1
  28       25       26 ar
  29       26       27 ar
  30       27       28 ar
  31       28       29 ar
  32       29       30 ar
  33       30       25 ar
  34       30       31 1
  35       31       32 1
  36       32       22 1
  37        7       33 ar
  38       33       34 ar
  39       34        4 ar
  40       15       35 1
  41        1       36 1
  42        1       37 1
  43        1       38 1
  44        2       39 1
  45        2       40 1
  46        5       41 1
  47        6       42 1
  48        8       43 1
  49       17       44 1
  50       18       45 1
  51       19       46 1
  52       20       47 1
  53       21       48 1
  54       26       49 1
  55       27       50 1
  56       28       51 1
  57       29       52 1
  58       31       53 1
  59       31       54 1
  60       32       55 1
  61       32       56 1
  62       33       57 1
  63       34       58 1

@<TRIPOS>MOLECULE

  58   63
SMALL
USER_CHARGES
@<TRIPOS>ATOM
   1 C1          -1.1229    -0.1220     1.0051 C.3          1    LIG   0.0000
   2 C2           0.3887    -0.2817     1.0058 C.3          1    LIG   0.0000
   3 O3           1.0000     1.0000     1.0000 O.3          1    LIG   0.0000
   4 C4           2.3502     1.0000     1.0000 C.ar         1    LIG   0.0000
   5 C5           3.0338     2.2112     0.9945 C.ar         1    LIG   0.0000
   6 C6           4.4246     2.2046     0.9950 C.ar         1    LIG   0.0000
   7 C7           5.1142     0.9958     0.9997 C.ar         1    LIG   0.0000
   8 C8           6.5648     0.9993     1.0006 C.2          1    LIG   0.0000
   9 C9           7.2237     1.5767     1.9903 C.2          1    LIG   0.0000
  10 S10          6.5193     2.3675     3.3580 S.3          1    LIG   0.0000
  11 C11          8.0241     2.8460     4.0741 C.2          1    LIG   0.0000
  12 N12          9.0578     2.2852     3.3137 N.am         1    LIG   0.0000
  13 C13          8.6602     1.6578     2.1246 C.2          1    LIG   0.0000
  14 O14          9.4135     1.1518     1.3206 O.2          1    LIG   0.0000
  15 C15         10.3491     2.4363     4.0151 C.3          1    LIG   0.0000
  16 C16         10.6499     1.1505     4.7683 C.ar         1    LIG   0.0000
  17 C17         10.5632    -0.0705     4.1074 C.ar         1    LIG   0.0000
  18 C18         10.8394    -1.2421     4.8043 C.ar         1    LIG   0.0000
  19 C19         11.1981    -1.1851     6.1477 C.ar         1    LIG   0.0000
  20 C20         11.2826     0.0404     6.8005 C.ar         1    LIG   0.0000
  21 C21         11.0073     1.2170     6.1110 C.ar         1    LIG   0.0000
  22 C22         10.4545     3.5625     5.0241 C.2          1    LIG   0.0000
  23 C23          9.3430     4.0928     5.5128 C.2          1    LIG   0.0000
  24 N24          8.1016     3.6314     5.0489 N.2          1    LIG   0.0000
  25 C25          9.3484     5.1423     6.5195 C.ar         1    LIG   0.0000
  26 C26          8.2682     5.4577     7.3410 C.ar         1    LIG   0.0000
  27 C27          8.3231     6.4809     8.2815 C.ar         1    LIG   0.0000
  28 C28          9.4942     7.2200     8.4119 C.ar         1    LIG   0.0000
  29 C29         10.5851     6.9217     7.6028 C.ar         1    LIG   0.0000
  30 C30         10.5075     5.8945     6.6686 C.ar         1    LIG   0.0000
  31 C31         11.7168     5.5979     5.7946 C.3          1    LIG   0.0000
  32 C32         11.7987     4.1133     5.4775 C.3          1    LIG   0.0000
  33 C33          4.4218    -0.2103     1.0045 C.ar         1    LIG   0.0000
  34 C34          3.0306    -0.2129     1.0053 C.ar         1    LIG   0.0000
  35 H           11.0628     2.5677     3.3271 H            1    LIG   0.0000
  36 H           -1.5534    -1.0246     1.0092 H            1    LIG   0.0000
  37 H           -1.4049     0.3855     1.8193 H            1    LIG   0.0000
  38 H           -1.4049     0.3781     0.1863 H            1    LIG   0.0000
  39 H            0.6707    -0.7818     1.8246 H            1    LIG   0.0000
  40 H            0.6707    -0.7892     0.1916 H            1    LIG   0.0000
  41 H            2.5316     3.0760     0.9903 H            1    LIG   0.0000
  42 H            4.9288     3.0681     0.9919 H            1    LIG   0.0000
  43 H            7.0663     0.5648     0.2524 H            1    LIG   0.0000
  44 H           10.3052    -0.1055     3.1419 H            1    LIG   0.0000
  45 H           10.7802    -2.1257     4.3399 H            1    LIG   0.0000
  46 H           11.3962    -2.0291     6.6461 H            1    LIG   0.0000
  47 H           11.5412     0.0756     7.7659 H            1    LIG   0.0000
  48 H           11.0657     2.1006     6.5754 H            1    LIG   0.0000
  49 H            7.4237     4.9297     7.2512 H            1    LIG   0.0000
  50 H            7.5304     6.6827     8.8568 H            1    LIG   0.0000
  51 H            9.5512     7.9600     9.0821 H            1    LIG   0.0000
  52 H           11.4301     7.4488     7.6932 H            1    LIG   0.0000
  53 H           12.5470     5.8768     6.2771 H            1    LIG   0.0000
  54 H           11.6388     6.1122     4.9406 H            1    LIG   0.0000
  55 H           12.4691     3.9735     4.7488 H            1    LIG   0.0000
  56 H           12.0907     3.6218     6.2980 H            1    LIG   0.0000
  57 H            4.9237    -1.0752     1.0073 H            1    LIG   0.0000
  58 H            2.5260    -1.0763     1.0098 H            1    LIG   0.0000
@<TRIPOS>BOND
   1        1        2 1
   2        2        3 1
   3        3        4 1
   4        4        5 ar
   5        5        6 ar
   6        6        7 ar
   7        7        8 1
   8        8        9 2
   9        9       10 1
  10       10       11 1
  11       11       12 1
  12       12       13 am
  13       13        9 1
  14       13       14 2
  15       12       15 1
  16       15       16 1
  17       16       17 ar
  18       17       18 ar
  19       18       19 ar
  20       19       20 ar
  21       20       21 ar
  22       21       16 ar
  23       15       22 1
  24       22       23 2
  25       23       24 1
  26       24       11 2
  27       23       25 1
  28       25       26 ar
  29       26       27 ar
  30       27       28 ar
  31       28       29 ar
  32       29       30 ar
  33       30       25 ar
  34       30       31 1
  35       31       32 1
  36       32       22 1
  37        7       33 ar
  38       33       34 ar
  39       34        4 ar
  40       15       35 1
  41        1       36 1
  42        1       37 1
  43        1       38 1
  44        2       39 1
  45        2       40 1
  46        5       41 1
  47        6       42 1
  48        8       43 1
  49       17       44 1
  50       18       45 1
  51       19       46 1
  52       20       47 1
  53       21       48 1
  54       26       49 1
  55       27       50 1
  56       28       51 1
  57       29       52 1
  58       31       53 1
  59       31       54 1
  60       32       55 1
  61       32       56 1
  62       33       57 1
  63       34       58 1

@<TRIPOS>MOLECULE

  58   63
SMALL
USER_CHARGES
@<TRIPOS>ATOM
   1 C1           0.3952    -0.8397     2.4196 C.3          1    LIG   0.0000
   2 C2           0.3887    -0.2817     1.0058 C.3          1    LIG   0.0000
   3 O3           1.0000     1.0000     1.0000 O.3          1    LIG   0.0000
   4 C4           2.3502     1.0000     1.0000 C.ar         1    LIG   0.0000
   5 C5           3.0338     2.2112     0.9945 C.ar         1    LIG   0.0000
   6 C6           4.4246     2.2046     0.9950 C.ar         1    LIG   0.0000
   7 C7           5.1142     0.9958     0.9997 C.ar         1    LIG   0.0000
   8 C8           6.5648     0.9993     1.0006 C.2          1    LIG   0.0000
   9 C9           7.2215     1.5748     1.9870 C.2          1    LIG   0.0000
  10 S10          6.4910     2.3466     3.3412 S.3          1    LIG   0.0000
  11 C11          7.9663     2.8264     4.1129 C.2          1    LIG   0.0000
  12 N12          9.0383     2.3208     3.3775 N.am         1    LIG   0.0000
  13 C13          8.6440     1.6913     2.1823 C.2          1    LIG   0.0000
  14 O14          9.4440     1.2672     1.3677 O.2          1    LIG   0.0000
  15 C15         10.3829     2.5786     3.9308 C.3          1    LIG   0.0000
  16 C16         10.8260     1.2753     4.5761 C.ar         1    LIG   0.0000
  17 C17         12.1459     0.8563     4.4448 C.ar         1    LIG   0.0000
  18 C18         12.5425    -0.3377     5.0379 C.ar         1    LIG   0.0000
  19 C19         11.6232    -1.0989     5.7533 C.ar         1    LIG   0.0000
  20 C20         10.3053    -0.6720     5.8797 C.ar         1    LIG   0.0000
  21 C21          9.9001     0.5207     5.2891 C.ar         1    LIG   0.0000
  22 C22         10.3589     3.6055     5.0601 C.2          1    LIG   0.0000
  23 C23          9.2191     4.0053     5.6203 C.2          1    LIG   0.0000
  24 N24          7.9707     3.5838     5.1208 N.2          1    LIG   0.0000
  25 C25          9.1574     4.9466     6.7223 C.ar         1    LIG   0.0000
  26 C26          7.9533     5.5379     7.0809 C.ar         1    LIG   0.0000
  27 C27          7.9287     6.4621     8.1184 C.ar         1    LIG   0.0000
  28 C28          9.0967     6.7977     8.7947 C.ar         1    LIG   0.0000
  29 C29         10.3005     6.2005     8.4346 C.ar         1    LIG   0.0000
  30 C30         10.3299     5.2687     7.4020 C.ar         1    LIG   0.0000
  31 C31         11.6390     4.5930     7.0142 C.3          1    LIG   0.0000
  32 C32         11.6850     4.1747     5.5475 C.3          1    LIG   0.0000
  33 C33          4.4218    -0.2103     1.0045 C.ar         1    LIG   0.0000
  34 C34          3.0306    -0.2129     1.0053 C.ar         1    LIG   0.0000
  35 H           11.0189     2.8548     3.2102 H            1    LIG   0.0000
  36 H           -0.0354    -1.7423     2.4237 H            1    LIG   0.0000
  37 H            1.3383    -0.9188     2.7425 H            1    LIG   0.0000
  38 H           -0.1132    -0.2252     3.0229 H            1    LIG   0.0000
  39 H            0.8970    -0.8962     0.4026 H            1    LIG   0.0000
  40 H           -0.5545    -0.2026     0.6830 H            1    LIG   0.0000
  41 H            2.5316     3.0760     0.9903 H            1    LIG   0.0000
  42 H            4.9288     3.0681     0.9919 H            1    LIG   0.0000
  43 H            7.0663     0.5648     0.2524 H            1    LIG   0.0000
  44 H           12.8023     1.4074     3.9297 H            1    LIG   0.0000
  45 H           13.4887    -0.6492     4.9501 H            1    LIG   0.0000
  46 H           11.9113    -1.9568     6.1786 H            1    LIG   0.0000
  47 H            9.6488    -1.2227     6.3954 H            1    LIG   0.0000
  48 H            8.9538     0.8321     5.3761 H            1    LIG   0.0000
  49 H            7.1110     5.3007     6.5967 H            1    LIG   0.0000
  50 H            7.0637     6.8895     8.3810 H            1    LIG   0.0000
  51 H            9.0713     7.4665     9.5377 H            1    LIG   0.0000
  52 H           11.1429     6.4405     8.9170 H            1    LIG   0.0000
  53 H           11.7567     3.7780     7.5815 H            1    LIG   0.0000
  54 H           12.3897     5.2307     7.1870 H            1    LIG   0.0000
  55 H           11.9134     4.9749     4.9930 H            1    LIG   0.0000
  56 H           12.3934     3.4779     5.4351 H            1    LIG   0.0000
  57 H            4.9237    -1.0752     1.0073 H            1    LIG   0.0000
  58 H            2.5260    -1.0763     1.0098 H            1    LIG   0.0000
@<TRIPOS>BOND
   1        1        2 1
   2        2        3 1
   3        3        4 1
   4        4        5 ar
   5        5        6 ar
   6        6        7 ar
   7        7        8 1
   8        8        9 2
   9        9       10 1
  10       10       11 1
  11       11       12 1
  12       12       13 am
  13       13        9 1
  14       13       14 2
  15       12       15 1
  16       15       16 1
  17       16       17 ar
  18       17       18 ar
  19       18       19 ar
  20       19       20 ar
  21       20       21 ar
  22       21       16 ar
  23       15       22 1
  24       22       23 2
  25       23       24 1
  26       24       11 2
  27       23       25 1
  28       25       26 ar
  29       26       27 ar
  30       27       28 ar
  31       28       29 ar
  32       29       30 ar
  33       30       25 ar
  34       30       31 1
  35       31       32 1
  36       32       22 1
  37        7       33 ar
  38       33       34 ar
  39       34        4 ar
  40       15       35 1
  41        1       36 1
  42        1       37 1
  43        1       38 1
  44        2       39 1
  45        2       40 1
  46        5       41 1
  47        6       42 1
  48        8       43 1
  49       17       44 1
  50       18       45 1
  51       19       46 1
  52       20       47 1
  53       21       48 1
  54       26       49 1
  55       27       50 1
  56       28       51 1
  57       29       52 1
  58       31       53 1
  59       31       54 1
  60       32       55 1
  61       32       56 1
  62       33       57 1
  63       34       58 1

@<TRIPOS>MOLECULE

  58   63
SMALL
USER_CHARGES
@<TRIPOS>ATOM
   1 C1           0.3952    -0.8397     2.4196 C.3          1    LIG   0.0000
   2 C2           0.3887    -0.2817     1.0058 C.3          1    LIG   0.0000
   3 O3           1.0000     1.0000     1.0000 O.3          1    LIG   0.0000
   4 C4           2.3502     1.0000     1.0000 C.ar         1    LIG   0.0000
   5 C5           3.0338     2.2112     0.9945 C.ar         1    LIG   0.0000
   6 C6           4.4246     2.2046     0.9950 C.ar         1    LIG   0.0000
   7 C7           5.1142     0.9958     0.9997 C.ar         1    LIG   0.0000
   8 C8           6.5648     0.9993     1.0006 C.2          1    LIG   0.0000
   9 C9           7.2215     1.5748     1.9870 C.2          1    LIG   0.0000
  10 S10          6.4910     2.3466     3.3412 S.3          1    LIG   0.0000
  11 C11          7.9663     2.8264     4.1129 C.2          1    LIG   0.0000
  12 N12          9.0383     2.3208     3.3775 N.am         1    LIG   0.0000
  13 C13          8.6440     1.6913     2.1823 C.2          1    LIG   0.0000
  14 O14          9.4440     1.2672     1.3677 O.2          1    LIG   0.0000
  15 C15         10.3829     2.5786     3.9308 C.3          1    LIG   0.0000
  16 C16         10.8260     1.2753     4.5761 C.ar         1    LIG   0.0000
  17 C17          9.9747     0.6211     5.4605 C.ar         1    LIG   0.0000
  18 C18         10.3884    -0.5704     6.0469 C.ar         1    LIG   0.0000
  19 C19         11.6415    -1.0958     5.7468 C.ar         1    LIG   0.0000
  20 C20         12.4863    -0.4349     4.8611 C.ar         1    LIG   0.0000
  21 C21         12.0805     0.7577     4.2706 C.ar         1    LIG   0.0000
  22 C22         10.3589     3.6055     5.0601 C.2          1    LIG   0.0000
  23 C23          9.2191     4.0053     5.6203 C.2          1    LIG   0.0000
  24 N24          7.9707     3.5838     5.1208 N.2          1    LIG   0.0000
  25 C25          9.1574     4.9466     6.7223 C.ar         1    LIG   0.0000
  26 C26          7.9533     5.5379     7.0809 C.ar         1    LIG   0.0000
  27 C27          7.9287     6.4621     8.1184 C.ar         1    LIG   0.0000
  28 C28          9.0967     6.7977     8.7947 C.ar         1    LIG   0.0000
  29 C29         10.3005     6.2005     8.4346 C.ar         1    LIG   0.0000
  30 C30         10.3299     5.2687     7.4020 C.ar         1    LIG   0.0000
  31 C31         11.6390     4.5930     7.0142 C.3          1    LIG   0.0000
  32 C32         11.6850     4.1747     5.5475 C.3          1    LIG   0.0000
  33 C33          4.4218    -0.2103     1.0045 C.ar         1    LIG   0.0000
  34 C34          3.0306    -0.2129     1.0053 C.ar         1    LIG   0.0000
  35 H           11.0189     2.8548     3.2102 H            1    LIG   0.0000
  36 H           -0.0354    -1.7423     2.4237 H            1    LIG   0.0000
  37 H            1.3383    -0.9188     2.7425 H            1    LIG   0.0000
  38 H           -0.1132    -0.2252     3.0229 H            1    LIG   0.0000
  39 H            0.8970    -0.8962     0.4026 H            1    LIG   0.0000
  40 H           -0.5545    -0.2026     0.6830 H            1    LIG   0.0000
  41 H            2.5316     3.0760     0.9903 H            1    LIG   0.0000
  42 H            4.9288     3.0681     0.9919 H            1    LIG   0.0000
  43 H            7.0663     0.5648     0.2524 H            1    LIG   0.0000
  44 H            9.0752     1.0031     5.6723 H            1    LIG   0.0000
  45 H            9.7851    -1.0496     6.6844 H            1    LIG   0.0000
  46 H           11.9362    -1.9526     6.1700 H            1    LIG   0.0000
  47 H           13.3856    -0.8172     4.6486 H            1    LIG   0.0000
  48 H           12.6839     1.2375     3.6337 H            1    LIG   0.0000
  49 H            7.1110     5.3007     6.5967 H            1    LIG   0.0000
  50 H            7.0637     6.8895     8.3810 H            1    LIG   0.0000
  51 H            9.0713     7.4665     9.5377 H            1    LIG   0.0000
  52 H           11.1429     6.4405     8.9170 H            1    LIG   0.0000
  53 H           11.7567     3.7780     7.5815 H            1    LIG   0.0000
  54 H           12.3897     5.2307     7.1870 H            1    LIG   0.0000
  55 H           11.9134     4.9749     4.9930 H            1    LIG   0.0000
  56 H           12.3934     3.4779     5.4351 H            1    LIG   0.0000
  57 H            4.9237    -1.0752     1.0073 H            1    LIG   0.0000
  58 H            2.5260    -1.0763     1.0098 H            1    LIG   0.0000
@<TRIPOS>BOND
   1        1        2 1
   2        2        3 1
   3        3        4 1
   4        4        5 ar
   5        5        6 ar
   6        6        7 ar
   7        7        8 1
   8        8        9 2
   9        9       10 1
  10       10       11 1
  11       11       12 1
  12       12       13 am
  13       13        9 1
  14       13       14 2
  15       12       15 1
  16       15       16 1
  17       16       17 ar
  18       17       18 ar
  19       18       19 ar
  20       19       20 ar
  21       20       21 ar
  22       21       16 ar
  23       15       22 1
  24       22       23 2
  25       23       24 1
  26       24       11 2
  27       23       25 1
  28       25       26 ar
  29       26       27 ar
  30       27       28 ar
  31       28       29 ar
  32       29       30 ar
  33       30       25 ar
  34       30       31 1
  35       31       32 1
  36       32       22 1
  37        7       33 ar
  38       33       34 ar
  39       34        4 ar
  40       15       35 1
  41        1       36 1
  42        1       37 1
  43        1       38 1
  44        2       39 1
  45        2       40 1
  46        5       41 1
  47        6       42 1
  48        8       43 1
  49       17       44 1
  50       18       45 1
  51       19       46 1
  52       20       47 1
  53       21       48 1
  54       26       49 1
  55       27       50 1
  56       28       51 1
  57       29       52 1
  58       31       53 1
  59       31       54 1
  60       32       55 1
  61       32       56 1
  62       33       57 1
  63       34       58 1

@<TRIPOS>MOLECULE

  58   63
SMALL
USER_CHARGES
@<TRIPOS>ATOM
   1 C1           0.3952    -0.8397     2.4196 C.3          1    LIG   0.0000
   2 C2           0.3887    -0.2817     1.0058 C.3          1    LIG   0.0000
   3 O3           1.0000     1.0000     1.0000 O.3          1    LIG   0.0000
   4 C4           2.3502     1.0000     1.0000 C.ar         1    LIG   0.0000
   5 C5           3.0338     2.2112     0.9945 C.ar         1    LIG   0.0000
   6 C6           4.4246     2.2046     0.9950 C.ar         1    LIG   0.0000
   7 C7           5.1142     0.9958     0.9997 C.ar         1    LIG   0.0000
   8 C8           6.5648     0.9993     1.0006 C.2          1    LIG   0.0000
   9 C9           7.2215     1.5748     1.9870 C.2          1    LIG   0.0000
  10 S10          6.4910     2.3466     3.3412 S.3          1    LIG   0.0000
  11 C11          7.9663     2.8264     4.1129 C.2          1    LIG   0.0000
  12 N12          9.0383     2.3208     3.3775 N.am         1    LIG   0.0000
  13 C13          8.6440     1.6913     2.1823 C.2          1    LIG   0.0000
  14 O14          9.4440     1.2672     1.3677 O.2          1    LIG   0.0000
  15 C15         10.3829     2.5786     3.9308 C.3          1    LIG   0.0000
  16 C16         10.8260     1.2753     4.5761 C.ar         1    LIG   0.0000
  17 C17         10.7361     0.0869     3.8589 C.ar         1    LIG   0.0000
  18 C18         11.1430    -1.1009     4.4573 C.ar         1    LIG   0.0000
  19 C19         11.6339    -1.0922     5.7594 C.ar         1    LIG   0.0000
  20 C20         11.7205     0.1010     6.4692 C.ar         1    LIG   0.0000
  21 C21         11.3150     1.2935     5.8783 C.ar         1    LIG   0.0000
  22 C22         10.3589     3.6055     5.0601 C.2          1    LIG   0.0000
  23 C23          9.2191     4.0053     5.6203 C.2          1    LIG   0.0000
  24 N24          7.9707     3.5838     5.1208 N.2          1    LIG   0.0000
  25 C25          9.1574     4.9466     6.7223 C.ar         1    LIG   0.0000
  26 C26          7.9533     5.5379     7.0809 C.ar         1    LIG   0.0000
  27 C27          7.9287     6.4621     8.1184 C.ar         1    LIG   0.0000
  28 C28          9.0967     6.7977     8.7947 C.ar         1    LIG   0.0000
  29 C29         10.3005     6.2005     8.4346 C.ar         1    LIG   0.0000
  30 C30         10.3299     5.2687     7.4020 C.ar         1    LIG   0.0000
  31 C31         11.6390     4.5930     7.0142 C.3          1    LIG   0.0000
  32 C32         11.6850     4.1747     5.5475 C.3          1    LIG   0.0000
  33 C33          4.4218    -0.2103     1.0045 C.ar         1    LIG   0.0000
  34 C34          3.0306    -0.2129     1.0053 C.ar         1    LIG   0.0000
  35 H           11.0189     2.8548     3.2102 H            1    LIG   0.0000
  36 H           -0.0354    -1.7423     2.4237 H            1    LIG   0.0000
  37 H            1.3383    -0.9188     2.7425 H            1    LIG   0.0000
  38 H           -0.1132    -0.2252     3.0229 H            1    LIG   0.0000
  39 H            0.8970    -0.8962     0.4026 H            1    LIG   0.0000
  40 H           -0.5545    -0.2026     0.6830 H            1    LIG   0.0000
  41 H            2.5316     3.0760     0.9903 H            1    LIG   0.0000
  42 H            4.9288     3.0681     0.9919 H            1    LIG   0.0000
  43 H            7.0663     0.5648     0.2524 H            1    LIG   0.0000
  44 H           10.3829     0.0865     2.9234 H            1    LIG   0.0000
  45 H           11.0829    -1.9616     3.9516 H            1    LIG   0.0000
  46 H           11.9257    -1.9478     6.1869 H            1    LIG   0.0000
  47 H           12.0744     0.1017     7.4045 H            1    LIG   0.0000
  48 H           11.3743     2.1541     6.3841 H            1    LIG   0.0000
  49 H            7.1110     5.3007     6.5967 H            1    LIG   0.0000
  50 H            7.0637     6.8895     8.3810 H            1    LIG   0.0000
  51 H            9.0713     7.4665     9.5377 H            1    LIG   0.0000
  52 H           11.1429     6.4405     8.9170 H            1    LIG   0.0000
  53 H           11.7567     3.7780     7.5815 H            1    LIG   0.0000
  54 H           12.3897     5.2307     7.1870 H            1    LIG   0.0000
  55 H           11.9134     4.9749     4.9930 H            1    LIG   0.0000
  56 H           12.3934     3.4779     5.4351 H            1    LIG   0.0000
  57 H            4.9237    -1.0752     1.0073 H            1    LIG   0.0000
  58 H            2.5260    -1.0763     1.0098 H            1    LIG   0.0000
@<TRIPOS>BOND
   1        1        2 1
   2        2        3 1
   3        3        4 1
   4        4        5 ar
   5        5        6 ar
   6        6        7 ar
   7        7        8 1
   8        8        9 2
   9        9       10 1
  10       10       11 1
  11       11       12 1
  12       12       13 am
  13       13        9 1
  14       13       14 2
  15       12       15 1
  16       15       16 1
  17       16       17 ar
  18       17       18 ar
  19       18       19 ar
  20       19       20 ar
  21       20       21 ar
  22       21       16 ar
  23       15       22 1
  24       22       23 2
  25       23       24 1
  26       24       11 2
  27       23       25 1
  28       25       26 ar
  29       26       27 ar
  30       27       28 ar
  31       28       29 ar
  32       29       30 ar
  33       30       25 ar
  34       30       31 1
  35       31       32 1
  36       32       22 1
  37        7       33 ar
  38       33       34 ar
  39       34        4 ar
  40       15       35 1
  41        1       36 1
  42        1       37 1
  43        1       38 1
  44        2       39 1
  45        2       40 1
  46        5       41 1
  47        6       42 1
  48        8       43 1
  49       17       44 1
  50       18       45 1
  51       19       46 1
  52       20       47 1
  53       21       48 1
  54       26       49 1
  55       27       50 1
  56       28       51 1
  57       29       52 1
  58       31       53 1
  59       31       54 1
  60       32       55 1
  61       32       56 1
  62       33       57 1
  63       34       58 1

@<TRIPOS>MOLECULE

  58   63
SMALL
USER_CHARGES
@<TRIPOS>ATOM
   1 C1          -1.1229    -0.1220     1.0051 C.3          1    LIG   0.0000
   2 C2           0.3887    -0.2817     1.0058 C.3          1    LIG   0.0000
   3 O3           1.0000     1.0000     1.0000 O.3          1    LIG   0.0000
   4 C4           2.3502     1.0000     1.0000 C.ar         1    LIG   0.0000
   5 C5           3.0338     2.2112     0.9945 C.ar         1    LIG   0.0000
   6 C6           4.4246     2.2046     0.9950 C.ar         1    LIG   0.0000
   7 C7           5.1142     0.9958     0.9997 C.ar         1    LIG   0.0000
   8 C8           6.5648     0.9993     1.0006 C.2          1    LIG   0.0000
   9 C9           7.2204     1.5738     1.9854 C.2          1    LIG   0.0000
  10 S10          6.4322     2.2900     3.3602 S.3          1    LIG   0.0000
  11 C11          7.9172     2.8367     4.0562 C.2          1    LIG   0.0000
  12 N12          9.0036     2.3222     3.3011 N.am         1    LIG   0.0000
  13 C13          8.6559     1.6622     2.1323 C.2          1    LIG   0.0000
  14 O14          9.4638     1.2483     1.2991 O.2          1    LIG   0.0000
  15 C15         10.2914     2.5466     3.9647 C.3          1    LIG   0.0000
  16 C16         10.6687     1.2789     4.7143 C.ar         1    LIG   0.0000
  17 C17         11.2496     1.3720     5.9748 C.ar         1    LIG   0.0000
  18 C18         11.5922     0.2071     6.6533 C.ar         1    LIG   0.0000
  19 C19         11.3530    -1.0339     6.0709 C.ar         1    LIG   0.0000
  20 C20         10.7714    -1.1175     4.8101 C.ar         1    LIG   0.0000
  21 C21         10.4262     0.0428     4.1243 C.ar         1    LIG   0.0000
  22 C22         10.3115     3.7050     4.9509 C.2          1    LIG   0.0000
  23 C23          9.1581     4.1260     5.4643 C.2          1    LIG   0.0000
  24 N24          7.9153     3.6532     5.0340 N.2          1    LIG   0.0000
  25 C25          9.1506     5.1982     6.4368 C.ar         1    LIG   0.0000
  26 C26          7.9437     5.8140     6.7490 C.ar         1    LIG   0.0000
  27 C27          7.9029     6.8514     7.6745 C.ar         1    LIG   0.0000
  28 C28          9.0794     7.2673     8.2889 C.ar         1    LIG   0.0000
  29 C29         10.2902     6.6561     7.9843 C.ar         1    LIG   0.0000
  30 C30         10.3254     5.6165     7.0566 C.ar         1    LIG   0.0000
  31 C31         11.6404     4.9281     6.7268 C.3          1    LIG   0.0000
  32 C32         11.6521     4.3224     5.3286 C.3          1    LIG   0.0000
  33 C33          4.4218    -0.2103     1.0045 C.ar         1    LIG   0.0000
  34 C34          3.0306    -0.2129     1.0053 C.ar         1    LIG   0.0000
  35 H           10.9833     2.7167     3.2630 H            1    LIG   0.0000
  36 H           -1.5534    -1.0246     1.0092 H            1    LIG   0.0000
  37 H           -1.4049     0.3855     1.8193 H            1    LIG   0.0000
  38 H           -1.4049     0.3781     0.1863 H            1    LIG   0.0000
  39 H            0.6707    -0.7818     1.8246 H            1    LIG   0.0000
  40 H            0.6707    -0.7892     0.1916 H            1    LIG   0.0000
  41 H            2.5316     3.0760     0.9903 H            1    LIG   0.0000
  42 H            4.9288     3.0681     0.9919 H            1    LIG   0.0000
  43 H            7.0663     0.5648     0.2524 H            1    LIG   0.0000
  44 H           11.4190     2.2664     6.3886 H            1    LIG   0.0000
  45 H           12.0106     0.2615     7.5599 H            1    LIG   0.0000
  46 H           11.6004    -1.8696     6.5612 H            1    LIG   0.0000
  47 H           10.6013    -2.0119     4.3964 H            1    LIG   0.0000
  48 H           10.0085    -0.0113     3.2173 H            1    LIG   0.0000
  49 H            7.1006     5.5094     6.3058 H            1    LIG   0.0000
  50 H            7.0345     7.2948     7.8964 H            1    LIG   0.0000
  51 H            9.0540     8.0123     8.9555 H            1    LIG   0.0000
  52 H           11.1324     6.9611     8.4289 H            1    LIG   0.0000
  53 H           11.7955     4.1985     7.3929 H            1    LIG   0.0000
  54 H           12.3782     5.6001     6.7906 H            1    LIG   0.0000
  55 H           11.8715     5.0413     4.6691 H            1    LIG   0.0000
  56 H           12.3544     3.6114     5.2926 H            1    LIG   0.0000
  57 H            4.9237    -1.0752     1.0073 H            1    LIG   0.0000
  58 H            2.5260    -1.0763     1.0098 H            1    LIG   0.0000
@<TRIPOS>BOND
   1        1        2 1
   2        2        3 1
   3        3        4 1
   4        4        5 ar
   5        5        6 ar
   6        6        7 ar
   7        7        8 1
   8        8        9 2
   9        9       10 1
  10       10       11 1
  11       11       12 1
  12       12       13 am
  13       13        9 1
  14       13       14 2
  15       12       15 1
  16       15       16 1
  17       16       17 ar
  18       17       18 ar
  19       18       19 ar
  20       19       20 ar
  21       20       21 ar
  22       21       16 ar
  23       15       22 1
  24       22       23 2
  25       23       24 1
  26       24       11 2
  27       23       25 1
  28       25       26 ar
  29       26       27 ar
  30       27       28 ar
  31       28       29 ar
  32       29       30 ar
  33       30       25 ar
  34       30       31 1
  35       31       32 1
  36       32       22 1
  37        7       33 ar
  38       33       34 ar
  39       34        4 ar
  40       15       35 1
  41        1       36 1
  42        1       37 1
  43        1       38 1
  44        2       39 1
  45        2       40 1
  46        5       41 1
  47        6       42 1
  48        8       43 1
  49       17       44 1
  50       18       45 1
  51       19       46 1
  52       20       47 1
  53       21       48 1
  54       26       49 1
  55       27       50 1
  56       28       51 1
  57       29       52 1
  58       31       53 1
  59       31       54 1
  60       32       55 1
  61       32       56 1
  62       33       57 1
  63       34       58 1

