@<TRIPOS>MOLECULE
*****
 58 63 0 0 0
SMALL
USER_CHARGES

@<TRIPOS>ATOM
      1 C1          0.3952   -0.8525   -0.4029 C.3     1  LIG1        0.0000
      2 C2          0.3887   -0.2817    1.0058 C.3     1  LIG1        0.0000
      3 O3          1.0000    1.0000    1.0000 O.2     1  LIG1        0.0000
      4 C4          2.3502    1.0000    1.0000 C.3     1  LIG1        0.0000
      5 C5          3.0338    2.2112    0.9945 C.3     1  LIG1        0.0000
      6 C6          4.4246    2.2046    0.9950 C.3     1  LIG1        0.0000
      7 C7          5.1142    0.9958    0.9997 C.3     1  LIG1        0.0000
      8 C8          6.5648    0.9993    1.0006 C.2     1  LIG1        0.0000
      9 C9          7.2227    1.5678    0.0109 C.2     1  LIG1        0.0000
     10 S10         6.4939    2.3524   -1.3368 S.3     1  LIG1        0.0000
     11 C11         7.9703    2.7854   -2.1337 C.2     1  LIG1        0.0000
     12 N12         9.0410    2.4046   -1.3249 N.am    1  LIG1        0.0000
     13 C13         8.6455    1.6830   -0.1834 C.2     1  LIG1        0.0000
     14 O14         9.4447    1.1920    0.5936 O.2     1  LIG1        0.0000
     15 C15        10.3861    2.7589   -1.8208 C.3     1  LIG1        0.0000
     16 C16        10.8231    3.9707   -1.0135 C.3     1  LIG1        0.0000
     17 C17        12.1414    4.0705   -0.5810 C.3     1  LIG1        0.0000
     18 C18        12.5324    5.1822    0.1577 C.3     1  LIG1        0.0000
     19 C19        11.6092    6.1796    0.4564 C.3     1  LIG1        0.0000
     20 C20        10.2929    6.0717    0.0195 C.3     1  LIG1        0.0000
     21 C21         9.8933    4.9626   -0.7193 C.3     1  LIG1        0.0000
     22 C22        10.3650    3.2233   -3.2749 C.2     1  LIG1        0.0000
     23 C23         9.2262    3.5051   -3.9047 C.2     1  LIG1        0.0000
     24 N24         7.9767    3.2795   -3.2936 N.2     1  LIG1        0.0000
     25 C25         9.1672    3.9886   -5.2710 C.3     1  LIG1        0.0000
     26 C26         7.9651    3.9999   -5.9659 C.3     1  LIG1        0.0000
     27 C27         7.9432    4.4363   -7.2852 C.3     1  LIG1        0.0000
     28 C28         9.1118    4.8577   -7.9105 C.3     1  LIG1        0.0000
     29 C29        10.3135    4.8480   -7.2096 C.3     1  LIG1        0.0000
     30 C30        10.3402    4.4198   -5.8863 C.3     1  LIG1        0.0000
     31 C31        11.6469    4.4258   -5.1033 C.3     1  LIG1        0.0000
     32 C32        11.6929    3.3649   -4.0075 C.3     1  LIG1        0.0000
     33 C33         4.4218   -0.2103    1.0045 C.3     1  LIG1        0.0000
     34 C34         3.0306   -0.2129    1.0053 C.3     1  LIG1        0.0000
     35 H          11.0240    1.9986   -1.6978 H       1  LIG1        0.0000
     36 H          -0.0354   -1.7551   -0.3988 H       1  LIG1        0.0000
     37 H          -0.1132   -0.2434   -1.0117 H       1  LIG1        0.0000
     38 H           1.3383   -0.9345   -0.7250 H       1  LIG1        0.0000
     39 H          -0.5545   -0.1996    1.3279 H       1  LIG1        0.0000
     40 H           0.8970   -0.8907    1.6146 H       1  LIG1        0.0000
     41 H           2.5316    3.0760    0.9903 H       1  LIG1        0.0000
     42 H           4.9288    3.0681    0.9919 H       1  LIG1        0.0000
     43 H           7.0653    0.5701    1.7524 H       1  LIG1        0.0000
     44 H          12.8007    3.3508   -0.7988 H       1  LIG1        0.0000
     45 H          13.4774    5.2648    0.4742 H       1  LIG1        0.0000
     46 H          11.8933    6.9778    0.9876 H       1  LIG1        0.0000
     47 H           9.6336    6.7916    0.2366 H       1  LIG1        0.0000
     48 H           8.9482    4.8795   -1.0353 H       1  LIG1        0.0000
     49 H           7.1224    3.6967   -5.5210 H       1  LIG1        0.0000
     50 H           7.0796    4.4474   -7.7892 H       1  LIG1        0.0000
     51 H           9.0883    5.1667   -8.8612 H       1  LIG1        0.0000
     52 H          11.1563    5.1484   -7.6561 H       1  LIG1        0.0000
     53 H          11.7607    5.3249   -4.6808 H       1  LIG1        0.0000
     54 H          12.4001    4.2589   -5.7397 H       1  LIG1        0.0000
     55 H          11.9252    2.4853   -4.4226 H       1  LIG1        0.0000
     56 H          12.3986    3.6180   -3.3458 H       1  LIG1        0.0000
     57 H           4.9237   -1.0752    1.0073 H       1  LIG1        0.0000
     58 H           2.5260   -1.0763    1.0098 H       1  LIG1        0.0000
@<TRIPOS>BOND
     1     1     2    1
     2     2     3    1
     3     3     4    1
     4     4     5   ar
     5     5     6   ar
     6     6     7   ar
     7     7     8    1
     8     8     9    2
     9     9    10    1
    10    10    11    1
    11    11    12    1
    12    12    13   am
    13    13     9    1
    14    13    14    2
    15    12    15    1
    16    15    16    1
    17    16    17   ar
    18    17    18   ar
    19    18    19   ar
    20    19    20   ar
    21    20    21   ar
    22    21    16   ar
    23    15    22    1
    24    22    23    2
    25    23    24    1
    26    24    11    2
    27    23    25    1
    28    25    26   ar
    29    26    27   ar
    30    27    28   ar
    31    28    29   ar
    32    29    30   ar
    33    30    25   ar
    34    30    31    1
    35    31    32    1
    36    32    22    1
    37     7    33   ar
    38    33    34   ar
    39    34     4   ar
    40    15    35    1
    41     1    36    1
    42     1    37    1
    43     1    38    1
    44     2    39    1
    45     2    40    1
    46     5    41    1
    47     6    42    1
    48     8    43    1
    49    17    44    1
    50    18    45    1
    51    19    46    1
    52    20    47    1
    53    21    48    1
    54    26    49    1
    55    27    50    1
    56    28    51    1
    57    29    52    1
    58    31    53    1
    59    31    54    1
    60    32    55    1
    61    32    56    1
    62    33    57    1
    63    34    58    1
