@<TRIPOS>MOLECULE
*****
 58 63 0 0 0
SMALL
USER_CHARGES

@<TRIPOS>ATOM
      1 C1         -1.1229   -0.1220    1.0051 C.3     1  LIG1        0.0000
      2 C2          0.3887   -0.2817    1.0058 C.3     1  LIG1        0.0000
      3 O3          1.0000    1.0000    1.0000 O.2     1  LIG1        0.0000
      4 C4          2.3502    1.0000    1.0000 C.3     1  LIG1        0.0000
      5 C5          3.0338    2.2112    0.9945 C.3     1  LIG1        0.0000
      6 C6          4.4246    2.2046    0.9950 C.3     1  LIG1        0.0000
      7 C7          5.1142    0.9958    0.9997 C.3     1  LIG1        0.0000
      8 C8          6.5648    0.9993    1.0006 C.2     1  LIG1        0.0000
      9 C9          7.2237    1.5767    1.9903 C.2     1  LIG1        0.0000
     10 S10         6.5193    2.3675    3.3580 S.3     1  LIG1        0.0000
     11 C11         8.0241    2.8460    4.0741 C.2     1  LIG1        0.0000
     12 N12         9.0578    2.2852    3.3137 N.am    1  LIG1        0.0000
     13 C13         8.6602    1.6578    2.1246 C.2     1  LIG1        0.0000
     14 O14         9.4135    1.1518    1.3206 O.2     1  LIG1        0.0000
     15 C15        10.3491    2.4363    4.0151 C.3     1  LIG1        0.0000
     16 C16        10.6499    1.1505    4.7683 C.3     1  LIG1        0.0000
     17 C17        10.5632   -0.0705    4.1074 C.3     1  LIG1        0.0000
     18 C18        10.8394   -1.2421    4.8043 C.3     1  LIG1        0.0000
     19 C19        11.1981   -1.1851    6.1477 C.3     1  LIG1        0.0000
     20 C20        11.2826    0.0404    6.8005 C.3     1  LIG1        0.0000
     21 C21        11.0073    1.2170    6.1110 C.3     1  LIG1        0.0000
     22 C22        10.4545    3.5625    5.0241 C.2     1  LIG1        0.0000
     23 C23         9.3430    4.0928    5.5128 C.2     1  LIG1        0.0000
     24 N24         8.1016    3.6314    5.0489 N.2     1  LIG1        0.0000
     25 C25         9.3484    5.1423    6.5195 C.3     1  LIG1        0.0000
     26 C26         8.2682    5.4577    7.3410 C.3     1  LIG1        0.0000
     27 C27         8.3231    6.4809    8.2815 C.3     1  LIG1        0.0000
     28 C28         9.4942    7.2200    8.4119 C.3     1  LIG1        0.0000
     29 C29        10.5851    6.9217    7.6028 C.3     1  LIG1        0.0000
     30 C30        10.5075    5.8945    6.6686 C.3     1  LIG1        0.0000
     31 C31        11.7168    5.5979    5.7946 C.3     1  LIG1        0.0000
     32 C32        11.7987    4.1133    5.4775 C.3     1  LIG1        0.0000
     33 C33         4.4218   -0.2103    1.0045 C.3     1  LIG1        0.0000
     34 C34         3.0306   -0.2129    1.0053 C.3     1  LIG1        0.0000
     35 H          11.0628    2.5677    3.3271 H       1  LIG1        0.0000
     36 H          -1.5534   -1.0246    1.0092 H       1  LIG1        0.0000
     37 H          -1.4049    0.3855    1.8193 H       1  LIG1        0.0000
     38 H          -1.4049    0.3781    0.1863 H       1  LIG1        0.0000
     39 H           0.6707   -0.7818    1.8246 H       1  LIG1        0.0000
     40 H           0.6707   -0.7892    0.1916 H       1  LIG1        0.0000
     41 H           2.5316    3.0760    0.9903 H       1  LIG1        0.0000
     42 H           4.9288    3.0681    0.9919 H       1  LIG1        0.0000
     43 H           7.0663    0.5648    0.2524 H       1  LIG1        0.0000
     44 H          10.3052   -0.1055    3.1419 H       1  LIG1        0.0000
     45 H          10.7802   -2.1257    4.3399 H       1  LIG1        0.0000
     46 H          11.3962   -2.0291    6.6461 H       1  LIG1        0.0000
     47 H          11.5412    0.0756    7.7659 H       1  LIG1        0.0000
     48 H          11.0657    2.1006    6.5754 H       1  LIG1        0.0000
     49 H           7.4237    4.9297    7.2512 H       1  LIG1        0.0000
     50 H           7.5304    6.6827    8.8568 H       1  LIG1        0.0000
     51 H           9.5512    7.9600    9.0821 H       1  LIG1        0.0000
     52 H          11.4301    7.4488    7.6932 H       1  LIG1        0.0000
     53 H          12.5470    5.8768    6.2771 H       1  LIG1        0.0000
     54 H          11.6388    6.1122    4.9406 H       1  LIG1        0.0000
     55 H          12.4691    3.9735    4.7488 H       1  LIG1        0.0000
     56 H          12.0907    3.6218    6.2980 H       1  LIG1        0.0000
     57 H           4.9237   -1.0752    1.0073 H       1  LIG1        0.0000
     58 H           2.5260   -1.0763    1.0098 H       1  LIG1        0.0000
@<TRIPOS>BOND
     1     1     2    1
     2     2     3    1
     3     3     4    1
     4     4     5   ar
     5     5     6   ar
     6     6     7   ar
     7     7     8    1
     8     8     9    2
     9     9    10    1
    10    10    11    1
    11    11    12    1
    12    12    13   am
    13    13     9    1
    14    13    14    2
    15    12    15    1
    16    15    16    1
    17    16    17   ar
    18    17    18   ar
    19    18    19   ar
    20    19    20   ar
    21    20    21   ar
    22    21    16   ar
    23    15    22    1
    24    22    23    2
    25    23    24    1
    26    24    11    2
    27    23    25    1
    28    25    26   ar
    29    26    27   ar
    30    27    28   ar
    31    28    29   ar
    32    29    30   ar
    33    30    25   ar
    34    30    31    1
    35    31    32    1
    36    32    22    1
    37     7    33   ar
    38    33    34   ar
    39    34     4   ar
    40    15    35    1
    41     1    36    1
    42     1    37    1
    43     1    38    1
    44     2    39    1
    45     2    40    1
    46     5    41    1
    47     6    42    1
    48     8    43    1
    49    17    44    1
    50    18    45    1
    51    19    46    1
    52    20    47    1
    53    21    48    1
    54    26    49    1
    55    27    50    1
    56    28    51    1
    57    29    52    1
    58    31    53    1
    59    31    54    1
    60    32    55    1
    61    32    56    1
    62    33    57    1
    63    34    58    1
