@<TRIPOS>MOLECULE
*****
 58 63 0 0 0
SMALL
USER_CHARGES

@<TRIPOS>ATOM
      1 C1          0.3952   -0.8397    2.4196 C.3     1  LIG1        0.0000
      2 C2          0.3887   -0.2817    1.0058 C.3     1  LIG1        0.0000
      3 O3          1.0000    1.0000    1.0000 O.2     1  LIG1        0.0000
      4 C4          2.3502    1.0000    1.0000 C.3     1  LIG1        0.0000
      5 C5          3.0338    2.2112    0.9945 C.3     1  LIG1        0.0000
      6 C6          4.4246    2.2046    0.9950 C.3     1  LIG1        0.0000
      7 C7          5.1142    0.9958    0.9997 C.3     1  LIG1        0.0000
      8 C8          6.5648    0.9993    1.0006 C.2     1  LIG1        0.0000
      9 C9          7.2215    1.5748    1.9870 C.2     1  LIG1        0.0000
     10 S10         6.4910    2.3466    3.3412 S.3     1  LIG1        0.0000
     11 C11         7.9663    2.8264    4.1129 C.2     1  LIG1        0.0000
     12 N12         9.0383    2.3208    3.3775 N.am    1  LIG1        0.0000
     13 C13         8.6440    1.6913    2.1823 C.2     1  LIG1        0.0000
     14 O14         9.4440    1.2672    1.3677 O.2     1  LIG1        0.0000
     15 C15        10.3829    2.5786    3.9308 C.3     1  LIG1        0.0000
     16 C16        10.8260    1.2753    4.5761 C.3     1  LIG1        0.0000
     17 C17        10.7361    0.0869    3.8589 C.3     1  LIG1        0.0000
     18 C18        11.1430   -1.1009    4.4573 C.3     1  LIG1        0.0000
     19 C19        11.6339   -1.0922    5.7594 C.3     1  LIG1        0.0000
     20 C20        11.7205    0.1010    6.4692 C.3     1  LIG1        0.0000
     21 C21        11.3150    1.2935    5.8783 C.3     1  LIG1        0.0000
     22 C22        10.3589    3.6055    5.0601 C.2     1  LIG1        0.0000
     23 C23         9.2191    4.0053    5.6203 C.2     1  LIG1        0.0000
     24 N24         7.9707    3.5838    5.1208 N.2     1  LIG1        0.0000
     25 C25         9.1574    4.9466    6.7223 C.3     1  LIG1        0.0000
     26 C26         7.9533    5.5379    7.0809 C.3     1  LIG1        0.0000
     27 C27         7.9287    6.4621    8.1184 C.3     1  LIG1        0.0000
     28 C28         9.0967    6.7977    8.7947 C.3     1  LIG1        0.0000
     29 C29        10.3005    6.2005    8.4346 C.3     1  LIG1        0.0000
     30 C30        10.3299    5.2687    7.4020 C.3     1  LIG1        0.0000
     31 C31        11.6390    4.5930    7.0142 C.3     1  LIG1        0.0000
     32 C32        11.6850    4.1747    5.5475 C.3     1  LIG1        0.0000
     33 C33         4.4218   -0.2103    1.0045 C.3     1  LIG1        0.0000
     34 C34         3.0306   -0.2129    1.0053 C.3     1  LIG1        0.0000
     35 H          11.0189    2.8548    3.2102 H       1  LIG1        0.0000
     36 H          -0.0354   -1.7423    2.4237 H       1  LIG1        0.0000
     37 H           1.3383   -0.9188    2.7425 H       1  LIG1        0.0000
     38 H          -0.1132   -0.2252    3.0229 H       1  LIG1        0.0000
     39 H           0.8970   -0.8962    0.4026 H       1  LIG1        0.0000
     40 H          -0.5545   -0.2026    0.6830 H       1  LIG1        0.0000
     41 H           2.5316    3.0760    0.9903 H       1  LIG1        0.0000
     42 H           4.9288    3.0681    0.9919 H       1  LIG1        0.0000
     43 H           7.0663    0.5648    0.2524 H       1  LIG1        0.0000
     44 H          10.3829    0.0865    2.9234 H       1  LIG1        0.0000
     45 H          11.0829   -1.9616    3.9516 H       1  LIG1        0.0000
     46 H          11.9257   -1.9478    6.1869 H       1  LIG1        0.0000
     47 H          12.0744    0.1017    7.4045 H       1  LIG1        0.0000
     48 H          11.3743    2.1541    6.3841 H       1  LIG1        0.0000
     49 H           7.1110    5.3007    6.5967 H       1  LIG1        0.0000
     50 H           7.0637    6.8895    8.3810 H       1  LIG1        0.0000
     51 H           9.0713    7.4665    9.5377 H       1  LIG1        0.0000
     52 H          11.1429    6.4405    8.9170 H       1  LIG1        0.0000
     53 H          11.7567    3.7780    7.5815 H       1  LIG1        0.0000
     54 H          12.3897    5.2307    7.1870 H       1  LIG1        0.0000
     55 H          11.9134    4.9749    4.9930 H       1  LIG1        0.0000
     56 H          12.3934    3.4779    5.4351 H       1  LIG1        0.0000
     57 H           4.9237   -1.0752    1.0073 H       1  LIG1        0.0000
     58 H           2.5260   -1.0763    1.0098 H       1  LIG1        0.0000
@<TRIPOS>BOND
     1     1     2    1
     2     2     3    1
     3     3     4    1
     4     4     5   ar
     5     5     6   ar
     6     6     7   ar
     7     7     8    1
     8     8     9    2
     9     9    10    1
    10    10    11    1
    11    11    12    1
    12    12    13   am
    13    13     9    1
    14    13    14    2
    15    12    15    1
    16    15    16    1
    17    16    17   ar
    18    17    18   ar
    19    18    19   ar
    20    19    20   ar
    21    20    21   ar
    22    21    16   ar
    23    15    22    1
    24    22    23    2
    25    23    24    1
    26    24    11    2
    27    23    25    1
    28    25    26   ar
    29    26    27   ar
    30    27    28   ar
    31    28    29   ar
    32    29    30   ar
    33    30    25   ar
    34    30    31    1
    35    31    32    1
    36    32    22    1
    37     7    33   ar
    38    33    34   ar
    39    34     4   ar
    40    15    35    1
    41     1    36    1
    42     1    37    1
    43     1    38    1
    44     2    39    1
    45     2    40    1
    46     5    41    1
    47     6    42    1
    48     8    43    1
    49    17    44    1
    50    18    45    1
    51    19    46    1
    52    20    47    1
    53    21    48    1
    54    26    49    1
    55    27    50    1
    56    28    51    1
    57    29    52    1
    58    31    53    1
    59    31    54    1
    60    32    55    1
    61    32    56    1
    62    33    57    1
    63    34    58    1
