@<TRIPOS>MOLECULE
*****
 58 63 0 0 0
SMALL
USER_CHARGES

@<TRIPOS>ATOM
      1 C1         -1.1229   -0.1220    1.0051 C.3     1  LIG1        0.0000
      2 C2          0.3887   -0.2817    1.0058 C.3     1  LIG1        0.0000
      3 O3          1.0000    1.0000    1.0000 O.2     1  LIG1        0.0000
      4 C4          2.3502    1.0000    1.0000 C.3     1  LIG1        0.0000
      5 C5          3.0338    2.2112    0.9945 C.3     1  LIG1        0.0000
      6 C6          4.4246    2.2046    0.9950 C.3     1  LIG1        0.0000
      7 C7          5.1142    0.9958    0.9997 C.3     1  LIG1        0.0000
      8 C8          6.5648    0.9993    1.0006 C.2     1  LIG1        0.0000
      9 C9          7.2249    1.5697    0.0076 C.2     1  LIG1        0.0000
     10 S10         6.5223    2.3566   -1.3632 S.3     1  LIG1        0.0000
     11 C11         8.0282    2.7421   -2.1311 C.2     1  LIG1        0.0000
     12 N12         9.0605    2.3671   -1.2622 N.am    1  LIG1        0.0000
     13 C13         8.6616    1.6498   -0.1254 C.2     1  LIG1        0.0000
     14 O14         9.4137    1.2088    0.7170 O.2     1  LIG1        0.0000
     15 C15        10.3516    2.9029   -1.7399 C.3     1  LIG1        0.0000
     16 C16        10.6462    4.1990   -1.0020 C.3     1  LIG1        0.0000
     17 C17        10.5553    4.2369    0.3855 C.3     1  LIG1        0.0000
     18 C18        10.8259    5.4270    1.0525 C.3     1  LIG1        0.0000
     19 C19        11.1833    6.5630    0.3326 C.3     1  LIG1        0.0000
     20 C20        11.2721    6.5159   -1.0548 C.3     1  LIG1        0.0000
     21 C21        11.0024    5.3296   -1.7298 C.3     1  LIG1        0.0000
     22 C22        10.4605    3.2140   -3.2194 C.2     1  LIG1        0.0000
     23 C23         9.3507    3.3687   -3.9263 C.2     1  LIG1        0.0000
     24 N24         8.1079    3.1939   -3.2985 N.2     1  LIG1        0.0000
     25 C25         9.3592    3.7157   -5.3385 C.3     1  LIG1        0.0000
     26 C26         8.2794    4.2662   -6.0256 C.3     1  LIG1        0.0000
     27 C27         8.3374    4.5693   -7.3819 C.3     1  LIG1        0.0000
     28 C28         9.5114    4.3162   -8.0836 C.3     1  LIG1        0.0000
     29 C29        10.6020    3.7680   -7.4175 C.3     1  LIG1        0.0000
     30 C30        10.5212    3.4723   -6.0610 C.3     1  LIG1        0.0000
     31 C31        11.7302    2.8674   -5.3635 C.3     1  LIG1        0.0000
     32 C32        11.8064    3.3353   -3.9190 C.3     1  LIG1        0.0000
     33 C33         4.4218   -0.2103    1.0045 C.3     1  LIG1        0.0000
     34 C34         3.0306   -0.2129    1.0053 C.3     1  LIG1        0.0000
     35 H          11.0666    2.2436   -1.5075 H       1  LIG1        0.0000
     36 H          -1.5534   -1.0246    1.0092 H       1  LIG1        0.0000
     37 H          -1.4049    0.3855    1.8193 H       1  LIG1        0.0000
     38 H          -1.4049    0.3781    0.1863 H       1  LIG1        0.0000
     39 H           0.6707   -0.7818    1.8246 H       1  LIG1        0.0000
     40 H           0.6707   -0.7892    0.1916 H       1  LIG1        0.0000
     41 H           2.5316    3.0760    0.9903 H       1  LIG1        0.0000
     42 H           4.9288    3.0681    0.9919 H       1  LIG1        0.0000
     43 H           7.0653    0.5701    1.7524 H       1  LIG1        0.0000
     44 H          10.2982    3.4174    0.8978 H       1  LIG1        0.0000
     45 H          10.7636    5.4664    2.0498 H       1  LIG1        0.0000
     46 H          11.3773    7.4172    0.8149 H       1  LIG1        0.0000
     47 H          11.5298    7.3351   -1.5673 H       1  LIG1        0.0000
     48 H          11.0639    5.2902   -2.7272 H       1  LIG1        0.0000
     49 H           7.4328    4.4499   -5.5261 H       1  LIG1        0.0000
     50 H           7.5449    4.9642   -7.8466 H       1  LIG1        0.0000
     51 H           9.5707    4.5269   -9.0594 H       1  LIG1        0.0000
     52 H          11.4490    3.5853   -7.9166 H       1  LIG1        0.0000
     53 H          12.5611    3.1483   -5.8439 H       1  LIG1        0.0000
     54 H          11.6553    1.8704   -5.3822 H       1  LIG1        0.0000
     55 H          12.4771    2.7761   -3.4317 H       1  LIG1        0.0000
     56 H          12.0955    4.2924   -3.9027 H       1  LIG1        0.0000
     57 H           4.9237   -1.0752    1.0073 H       1  LIG1        0.0000
     58 H           2.5260   -1.0763    1.0098 H       1  LIG1        0.0000
@<TRIPOS>BOND
     1     1     2    1
     2     2     3    1
     3     3     4    1
     4     4     5   ar
     5     5     6   ar
     6     6     7   ar
     7     7     8    1
     8     8     9    2
     9     9    10    1
    10    10    11    1
    11    11    12    1
    12    12    13   am
    13    13     9    1
    14    13    14    2
    15    12    15    1
    16    15    16    1
    17    16    17   ar
    18    17    18   ar
    19    18    19   ar
    20    19    20   ar
    21    20    21   ar
    22    21    16   ar
    23    15    22    1
    24    22    23    2
    25    23    24    1
    26    24    11    2
    27    23    25    1
    28    25    26   ar
    29    26    27   ar
    30    27    28   ar
    31    28    29   ar
    32    29    30   ar
    33    30    25   ar
    34    30    31    1
    35    31    32    1
    36    32    22    1
    37     7    33   ar
    38    33    34   ar
    39    34     4   ar
    40    15    35    1
    41     1    36    1
    42     1    37    1
    43     1    38    1
    44     2    39    1
    45     2    40    1
    46     5    41    1
    47     6    42    1
    48     8    43    1
    49    17    44    1
    50    18    45    1
    51    19    46    1
    52    20    47    1
    53    21    48    1
    54    26    49    1
    55    27    50    1
    56    28    51    1
    57    29    52    1
    58    31    53    1
    59    31    54    1
    60    32    55    1
    61    32    56    1
    62    33    57    1
    63    34    58    1
