@<TRIPOS>MOLECULE
*****
 58 63 0 0 0
SMALL
USER_CHARGES

@<TRIPOS>ATOM
      1 C1         -1.1229   -0.1220    1.0051 C.3     1  LIG1        0.0000
      2 C2          0.3887   -0.2817    1.0058 C.3     1  LIG1        0.0000
      3 O3          1.0000    1.0000    1.0000 O.2     1  LIG1        0.0000
      4 C4          2.3502    1.0000    1.0000 C.3     1  LIG1        0.0000
      5 C5          3.0338    2.2112    0.9945 C.3     1  LIG1        0.0000
      6 C6          4.4246    2.2046    0.9950 C.3     1  LIG1        0.0000
      7 C7          5.1142    0.9958    0.9997 C.3     1  LIG1        0.0000
      8 C8          6.5648    0.9993    1.0006 C.2     1  LIG1        0.0000
      9 C9          7.2204    1.5738    1.9854 C.2     1  LIG1        0.0000
     10 S10         6.4322    2.2900    3.3602 S.3     1  LIG1        0.0000
     11 C11         7.9172    2.8367    4.0562 C.2     1  LIG1        0.0000
     12 N12         9.0036    2.3222    3.3011 N.am    1  LIG1        0.0000
     13 C13         8.6559    1.6622    2.1323 C.2     1  LIG1        0.0000
     14 O14         9.4638    1.2483    1.2991 O.2     1  LIG1        0.0000
     15 C15        10.2914    2.5466    3.9647 C.3     1  LIG1        0.0000
     16 C16        10.6687    1.2789    4.7143 C.3     1  LIG1        0.0000
     17 C17        11.2496    1.3720    5.9748 C.3     1  LIG1        0.0000
     18 C18        11.5922    0.2071    6.6533 C.3     1  LIG1        0.0000
     19 C19        11.3530   -1.0339    6.0709 C.3     1  LIG1        0.0000
     20 C20        10.7714   -1.1175    4.8101 C.3     1  LIG1        0.0000
     21 C21        10.4262    0.0428    4.1243 C.3     1  LIG1        0.0000
     22 C22        10.3115    3.7050    4.9509 C.2     1  LIG1        0.0000
     23 C23         9.1581    4.1260    5.4643 C.2     1  LIG1        0.0000
     24 N24         7.9153    3.6532    5.0340 N.2     1  LIG1        0.0000
     25 C25         9.1506    5.1982    6.4368 C.3     1  LIG1        0.0000
     26 C26         7.9437    5.8140    6.7490 C.3     1  LIG1        0.0000
     27 C27         7.9029    6.8514    7.6745 C.3     1  LIG1        0.0000
     28 C28         9.0794    7.2673    8.2889 C.3     1  LIG1        0.0000
     29 C29        10.2902    6.6561    7.9843 C.3     1  LIG1        0.0000
     30 C30        10.3254    5.6165    7.0566 C.3     1  LIG1        0.0000
     31 C31        11.6404    4.9281    6.7268 C.3     1  LIG1        0.0000
     32 C32        11.6521    4.3224    5.3286 C.3     1  LIG1        0.0000
     33 C33         4.4218   -0.2103    1.0045 C.3     1  LIG1        0.0000
     34 C34         3.0306   -0.2129    1.0053 C.3     1  LIG1        0.0000
     35 H          10.9833    2.7167    3.2630 H       1  LIG1        0.0000
     36 H          -1.5534   -1.0246    1.0092 H       1  LIG1        0.0000
     37 H          -1.4049    0.3855    1.8193 H       1  LIG1        0.0000
     38 H          -1.4049    0.3781    0.1863 H       1  LIG1        0.0000
     39 H           0.6707   -0.7818    1.8246 H       1  LIG1        0.0000
     40 H           0.6707   -0.7892    0.1916 H       1  LIG1        0.0000
     41 H           2.5316    3.0760    0.9903 H       1  LIG1        0.0000
     42 H           4.9288    3.0681    0.9919 H       1  LIG1        0.0000
     43 H           7.0663    0.5648    0.2524 H       1  LIG1        0.0000
     44 H          11.4190    2.2664    6.3886 H       1  LIG1        0.0000
     45 H          12.0106    0.2615    7.5599 H       1  LIG1        0.0000
     46 H          11.6004   -1.8696    6.5612 H       1  LIG1        0.0000
     47 H          10.6013   -2.0119    4.3964 H       1  LIG1        0.0000
     48 H          10.0085   -0.0113    3.2173 H       1  LIG1        0.0000
     49 H           7.1006    5.5094    6.3058 H       1  LIG1        0.0000
     50 H           7.0345    7.2948    7.8964 H       1  LIG1        0.0000
     51 H           9.0540    8.0123    8.9555 H       1  LIG1        0.0000
     52 H          11.1324    6.9611    8.4289 H       1  LIG1        0.0000
     53 H          11.7955    4.1985    7.3929 H       1  LIG1        0.0000
     54 H          12.3782    5.6001    6.7906 H       1  LIG1        0.0000
     55 H          11.8715    5.0413    4.6691 H       1  LIG1        0.0000
     56 H          12.3544    3.6114    5.2926 H       1  LIG1        0.0000
     57 H           4.9237   -1.0752    1.0073 H       1  LIG1        0.0000
     58 H           2.5260   -1.0763    1.0098 H       1  LIG1        0.0000
@<TRIPOS>BOND
     1     1     2    1
     2     2     3    1
     3     3     4    1
     4     4     5   ar
     5     5     6   ar
     6     6     7   ar
     7     7     8    1
     8     8     9    2
     9     9    10    1
    10    10    11    1
    11    11    12    1
    12    12    13   am
    13    13     9    1
    14    13    14    2
    15    12    15    1
    16    15    16    1
    17    16    17   ar
    18    17    18   ar
    19    18    19   ar
    20    19    20   ar
    21    20    21   ar
    22    21    16   ar
    23    15    22    1
    24    22    23    2
    25    23    24    1
    26    24    11    2
    27    23    25    1
    28    25    26   ar
    29    26    27   ar
    30    27    28   ar
    31    28    29   ar
    32    29    30   ar
    33    30    25   ar
    34    30    31    1
    35    31    32    1
    36    32    22    1
    37     7    33   ar
    38    33    34   ar
    39    34     4   ar
    40    15    35    1
    41     1    36    1
    42     1    37    1
    43     1    38    1
    44     2    39    1
    45     2    40    1
    46     5    41    1
    47     6    42    1
    48     8    43    1
    49    17    44    1
    50    18    45    1
    51    19    46    1
    52    20    47    1
    53    21    48    1
    54    26    49    1
    55    27    50    1
    56    28    51    1
    57    29    52    1
    58    31    53    1
    59    31    54    1
    60    32    55    1
    61    32    56    1
    62    33    57    1
    63    34    58    1
