@<TRIPOS>MOLECULE
*****
 58 63 0 0 0
SMALL
USER_CHARGES

@<TRIPOS>ATOM
      1 C1         -1.1229   -0.1220    1.0051 C.3     1  LIG1        0.0000
      2 C2          0.3887   -0.2817    1.0058 C.3     1  LIG1        0.0000
      3 O3          1.0000    1.0000    1.0000 O.2     1  LIG1        0.0000
      4 C4          2.3502    1.0000    1.0000 C.3     1  LIG1        0.0000
      5 C5          3.0338    2.2112    0.9945 C.3     1  LIG1        0.0000
      6 C6          4.4246    2.2046    0.9950 C.3     1  LIG1        0.0000
      7 C7          5.1142    0.9958    0.9997 C.3     1  LIG1        0.0000
      8 C8          6.5648    0.9993    1.0006 C.2     1  LIG1        0.0000
      9 C9          7.2216    1.5669    0.0125 C.2     1  LIG1        0.0000
     10 S10         6.4349    2.3970   -1.2974 S.3     1  LIG1        0.0000
     11 C11         7.9213    2.7309   -2.1144 C.2     1  LIG1        0.0000
     12 N12         9.0064    2.3375   -1.2880 N.am    1  LIG1        0.0000
     13 C13         8.6574    1.6542   -0.1332 C.2     1  LIG1        0.0000
     14 O14         9.4645    1.1421    0.6444 O.2     1  LIG1        0.0000
     15 C15        10.2944    2.8039   -1.8103 C.3     1  LIG1        0.0000
     16 C16        10.6656    4.0881   -1.0862 C.3     1  LIG1        0.0000
     17 C17        11.2455    5.1349   -1.7952 C.3     1  LIG1        0.0000
     18 C18        11.5826    6.3059   -1.1247 C.3     1  LIG1        0.0000
     19 C19        11.3389    6.4214    0.2405 C.3     1  LIG1        0.0000
     20 C20        10.7584    5.3695    0.9416 C.3     1  LIG1        0.0000
     21 C21        10.4187    4.1944    0.2786 C.3     1  LIG1        0.0000
     22 C22        10.3181    3.0789   -3.3066 C.2     1  LIG1        0.0000
     23 C23         9.1659    3.3095   -3.9313 C.2     1  LIG1        0.0000
     24 N24         7.9217    3.1695   -3.3105 N.2     1  LIG1        0.0000
     25 C25         9.1617    3.6156   -5.3461 C.3     1  LIG1        0.0000
     26 C26         7.9570    3.5744   -6.0391 C.3     1  LIG1        0.0000
     27 C27         7.9195    3.8571   -7.4004 C.3     1  LIG1        0.0000
     28 C28         9.0970    4.1848   -8.0643 C.3     1  LIG1        0.0000
     29 C29        10.3056    4.2302   -7.3791 C.3     1  LIG1        0.0000
     30 C30        10.3376    3.9467   -6.0148 C.3     1  LIG1        0.0000
     31 C31        11.6501    4.0093   -5.2498 C.3     1  LIG1        0.0000
     32 C32        11.6609    3.1013   -4.0260 C.3     1  LIG1        0.0000
     33 C33         4.4218   -0.2103    1.0045 C.3     1  LIG1        0.0000
     34 C34         3.0306   -0.2129    1.0053 C.3     1  LIG1        0.0000
     35 H          10.9878    2.1132   -1.6048 H       1  LIG1        0.0000
     36 H          -1.5534   -1.0246    1.0092 H       1  LIG1        0.0000
     37 H          -1.4049    0.3855    1.8193 H       1  LIG1        0.0000
     38 H          -1.4049    0.3781    0.1863 H       1  LIG1        0.0000
     39 H           0.6707   -0.7818    1.8246 H       1  LIG1        0.0000
     40 H           0.6707   -0.7892    0.1916 H       1  LIG1        0.0000
     41 H           2.5316    3.0760    0.9903 H       1  LIG1        0.0000
     42 H           4.9288    3.0681    0.9919 H       1  LIG1        0.0000
     43 H           7.0653    0.5701    1.7524 H       1  LIG1        0.0000
     44 H          11.4181    5.0465   -2.7763 H       1  LIG1        0.0000
     45 H          12.0002    7.0652   -1.6238 H       1  LIG1        0.0000
     46 H          11.5823    7.2646    0.7199 H       1  LIG1        0.0000
     47 H          10.5850    5.4579    1.9225 H       1  LIG1        0.0000
     48 H          10.0018    3.4348    0.7777 H       1  LIG1        0.0000
     49 H           7.1132    3.3404   -5.5563 H       1  LIG1        0.0000
     50 H           7.0527    3.8250   -7.8980 H       1  LIG1        0.0000
     51 H           9.0739    4.3895   -9.0429 H       1  LIG1        0.0000
     52 H          11.1486    4.4653   -7.8629 H       1  LIG1        0.0000
     53 H          11.8014    4.9514   -4.9505 H       1  LIG1        0.0000
     54 H          12.3906    3.7308   -5.8614 H       1  LIG1        0.0000
     55 H          11.8840    2.1714   -4.3183 H       1  LIG1        0.0000
     56 H          12.3603    3.4278   -3.3903 H       1  LIG1        0.0000
     57 H           4.9237   -1.0752    1.0073 H       1  LIG1        0.0000
     58 H           2.5260   -1.0763    1.0098 H       1  LIG1        0.0000
@<TRIPOS>BOND
     1     1     2    1
     2     2     3    1
     3     3     4    1
     4     4     5   ar
     5     5     6   ar
     6     6     7   ar
     7     7     8    1
     8     8     9    2
     9     9    10    1
    10    10    11    1
    11    11    12    1
    12    12    13   am
    13    13     9    1
    14    13    14    2
    15    12    15    1
    16    15    16    1
    17    16    17   ar
    18    17    18   ar
    19    18    19   ar
    20    19    20   ar
    21    20    21   ar
    22    21    16   ar
    23    15    22    1
    24    22    23    2
    25    23    24    1
    26    24    11    2
    27    23    25    1
    28    25    26   ar
    29    26    27   ar
    30    27    28   ar
    31    28    29   ar
    32    29    30   ar
    33    30    25   ar
    34    30    31    1
    35    31    32    1
    36    32    22    1
    37     7    33   ar
    38    33    34   ar
    39    34     4   ar
    40    15    35    1
    41     1    36    1
    42     1    37    1
    43     1    38    1
    44     2    39    1
    45     2    40    1
    46     5    41    1
    47     6    42    1
    48     8    43    1
    49    17    44    1
    50    18    45    1
    51    19    46    1
    52    20    47    1
    53    21    48    1
    54    26    49    1
    55    27    50    1
    56    28    51    1
    57    29    52    1
    58    31    53    1
    59    31    54    1
    60    32    55    1
    61    32    56    1
    62    33    57    1
    63    34    58    1
