@<TRIPOS>MOLECULE

  20   21
SMALL
USER_CHARGES
@<TRIPOS>ATOM
   1 O1          -0.0060     0.3906     1.7956 O.3          1    LIG   0.0000
   2 C2           1.0000     1.0000     1.0000 C.3          1    LIG   0.0000
   3 C3           1.8772     1.8772     1.8772 C.2          1    LIG   0.0000
   4 C4           3.0092     1.5085     2.5457 C.2          1    LIG   0.0000
   5 C5           3.5696     2.5928     3.2664 C.2          1    LIG   0.0000
   6 C6           4.7844     2.4812     4.0524 C.2          1    LIG   0.0000
   7 C7           5.7232     3.5097     4.2895 C.2          1    LIG   0.0000
   8 N8           6.6632     2.9889     5.0408 N.2          1    LIG   0.0000
   9 N9           6.4058     1.7180     5.3060 N.pl3        1    LIG   0.0000
  10 C10          5.2346     1.3695     4.7017 C.2          1    LIG   0.0000
  11 C11          2.9419     3.7955     3.2080 C.2          1    LIG   0.0000
  12 S12          1.5970     3.5221     2.2024 S.3          1    LIG   0.0000
  13 H            6.9773     1.1121     5.8595 H            1    LIG   0.0000
  14 H           -0.5834    -0.1868     1.2182 H            1    LIG   0.0000
  15 H            0.5708     1.5603     0.2915 H            1    LIG   0.0000
  16 H            1.5603     0.2915     0.5708 H            1    LIG   0.0000
  17 H            3.3957     0.5864     2.5288 H            1    LIG   0.0000
  18 H            5.6794     4.4497     3.9511 H            1    LIG   0.0000
  19 H            4.7918     0.4733     4.7291 H            1    LIG   0.0000
  20 H            3.2096     4.6491     3.6550 H            1    LIG   0.0000
@<TRIPOS>BOND
   1        1        2 1
   2        2        3 1
   3        3        4 2
   4        4        5 1
   5        5        6 1
   6        6        7 1
   7        7        8 2
   8        8        9 1
   9        9       10 1
  10       10        6 2
  11        5       11 2
  12       11       12 1
  13       12        3 1
  14        9       13 1
  15        1       14 1
  16        2       15 1
  17        2       16 1
  18        4       17 1
  19        7       18 1
  20       10       19 1
  21       11       20 1

@<TRIPOS>MOLECULE

  20   21
SMALL
USER_CHARGES
@<TRIPOS>ATOM
   1 O1          -0.0060     0.3906     1.7956 O.3          1    LIG   0.0000
   2 C2           1.0000     1.0000     1.0000 C.3          1    LIG   0.0000
   3 C3           1.8772     1.8772     1.8772 C.2          1    LIG   0.0000
   4 C4           3.0092     1.5085     2.5457 C.2          1    LIG   0.0000
   5 C5           3.5696     2.5928     3.2664 C.2          1    LIG   0.0000
   6 C6           4.7844     2.4812     4.0524 C.2          1    LIG   0.0000
   7 C7           5.2440     1.3242     4.7198 C.2          1    LIG   0.0000
   8 N8           6.3697     1.6552     5.3050 N.2          1    LIG   0.0000
   9 N9           6.6705     2.9222     5.0678 N.pl3        1    LIG   0.0000
  10 C10          5.6971     3.4677     4.2847 C.2          1    LIG   0.0000
  11 C11          2.9419     3.7955     3.2080 C.2          1    LIG   0.0000
  12 S12          1.5970     3.5221     2.2024 S.3          1    LIG   0.0000
  13 H            7.4799     3.4011     5.4077 H            1    LIG   0.0000
  14 H           -0.5834    -0.1868     1.2182 H            1    LIG   0.0000
  15 H            0.5708     1.5603     0.2915 H            1    LIG   0.0000
  16 H            1.5603     0.2915     0.5708 H            1    LIG   0.0000
  17 H            3.3957     0.5864     2.5288 H            1    LIG   0.0000
  18 H            4.7985     0.4291     4.7417 H            1    LIG   0.0000
  19 H            5.6596     4.4080     3.9465 H            1    LIG   0.0000
  20 H            3.2096     4.6491     3.6550 H            1    LIG   0.0000
@<TRIPOS>BOND
   1        1        2 1
   2        2        3 1
   3        3        4 2
   4        4        5 1
   5        5        6 1
   6        6        7 1
   7        7        8 2
   8        8        9 1
   9        9       10 1
  10       10        6 2
  11        5       11 2
  12       11       12 1
  13       12        3 1
  14        9       13 1
  15        1       14 1
  16        2       15 1
  17        2       16 1
  18        4       17 1
  19        7       18 1
  20       10       19 1
  21       11       20 1

@<TRIPOS>MOLECULE

  20   21
SMALL
USER_CHARGES
@<TRIPOS>ATOM
   1 O1          -0.0060     0.3906     1.7956 O.3          1    LIG   0.0000
   2 C2           1.0000     1.0000     1.0000 C.3          1    LIG   0.0000
   3 C3           1.8772     1.8772     1.8772 C.2          1    LIG   0.0000
   4 C4           3.0092     1.5085     2.5457 C.2          1    LIG   0.0000
   5 C5           3.5696     2.5928     3.2664 C.2          1    LIG   0.0000
   6 C6           4.7844     2.4812     4.0524 C.2          1    LIG   0.0000
   7 C7           5.1052     3.2317     5.2053 C.2          1    LIG   0.0000
   8 N8           6.2858     2.8201     5.6001 N.2          1    LIG   0.0000
   9 N9           6.7464     1.8706     4.8011 N.pl3        1    LIG   0.0000
  10 C10          5.8284     1.6344     3.8215 C.2          1    LIG   0.0000
  11 C11          2.9419     3.7955     3.2080 C.2          1    LIG   0.0000
  12 S12          1.5970     3.5221     2.2024 S.3          1    LIG   0.0000
  13 H            7.6247     1.4027     4.9000 H            1    LIG   0.0000
  14 H           -0.5834    -0.1868     1.2182 H            1    LIG   0.0000
  15 H            0.5708     1.5603     0.2915 H            1    LIG   0.0000
  16 H            1.5603     0.2915     0.5708 H            1    LIG   0.0000
  17 H            3.3957     0.5864     2.5288 H            1    LIG   0.0000
  18 H            4.5427     3.9377     5.6355 H            1    LIG   0.0000
  19 H            5.9054     0.9698     3.0783 H            1    LIG   0.0000
  20 H            3.2096     4.6491     3.6550 H            1    LIG   0.0000
@<TRIPOS>BOND
   1        1        2 1
   2        2        3 1
   3        3        4 2
   4        4        5 1
   5        5        6 1
   6        6        7 1
   7        7        8 2
   8        8        9 1
   9        9       10 1
  10       10        6 2
  11        5       11 2
  12       11       12 1
  13       12        3 1
  14        9       13 1
  15        1       14 1
  16        2       15 1
  17        2       16 1
  18        4       17 1
  19        7       18 1
  20       10       19 1
  21       11       20 1

@<TRIPOS>MOLECULE

  20   21
SMALL
USER_CHARGES
@<TRIPOS>ATOM
   1 O1          -0.0060     0.3906     1.7956 O.3          1    LIG   0.0000
   2 C2           1.0000     1.0000     1.0000 C.3          1    LIG   0.0000
   3 C3           1.8772     1.8772     1.8772 C.2          1    LIG   0.0000
   4 C4           3.0092     1.5085     2.5457 C.2          1    LIG   0.0000
   5 C5           3.5696     2.5928     3.2664 C.2          1    LIG   0.0000
   6 C6           4.7844     2.4812     4.0524 C.2          1    LIG   0.0000
   7 C7           6.0085     1.9221     3.6230 C.2          1    LIG   0.0000
   8 N8           6.8367     2.0191     4.6349 N.2          1    LIG   0.0000
   9 N9           6.2490     2.5934     5.6726 N.pl3        1    LIG   0.0000
  10 C10          4.9623     2.8960     5.3394 C.2          1    LIG   0.0000
  11 C11          2.9419     3.7955     3.2080 C.2          1    LIG   0.0000
  12 S12          1.5970     3.5221     2.2024 S.3          1    LIG   0.0000
  13 H            6.6789     2.7756     6.5569 H            1    LIG   0.0000
  14 H           -0.5834    -0.1868     1.2182 H            1    LIG   0.0000
  15 H            0.5708     1.5603     0.2915 H            1    LIG   0.0000
  16 H            1.5603     0.2915     0.5708 H            1    LIG   0.0000
  17 H            3.3957     0.5864     2.5288 H            1    LIG   0.0000
  18 H            6.2047     1.5296     2.7244 H            1    LIG   0.0000
  19 H            4.2814     3.3363     5.9246 H            1    LIG   0.0000
  20 H            3.2096     4.6491     3.6550 H            1    LIG   0.0000
@<TRIPOS>BOND
   1        1        2 1
   2        2        3 1
   3        3        4 2
   4        4        5 1
   5        5        6 1
   6        6        7 1
   7        7        8 2
   8        8        9 1
   9        9       10 1
  10       10        6 2
  11        5       11 2
  12       11       12 1
  13       12        3 1
  14        9       13 1
  15        1       14 1
  16        2       15 1
  17        2       16 1
  18        4       17 1
  19        7       18 1
  20       10       19 1
  21       11       20 1

@<TRIPOS>MOLECULE

  20   21
SMALL
USER_CHARGES
@<TRIPOS>ATOM
   1 O1          -0.0060     0.3906     1.7956 O.3          1    LIG   0.0000
   2 C2           1.0000     1.0000     1.0000 C.3          1    LIG   0.0000
   3 C3           1.8772     1.8772     1.8772 C.2          1    LIG   0.0000
   4 C4           2.9533     2.6221     1.4880 C.2          1    LIG   0.0000
   5 C5           3.5318     3.3180     2.5790 C.2          1    LIG   0.0000
   6 C6           4.6798     4.1953     2.4429 C.2          1    LIG   0.0000
   7 C7           4.9577     5.3352     3.2295 C.2          1    LIG   0.0000
   8 N8           6.0823     5.8343     2.7763 N.2          1    LIG   0.0000
   9 N9           6.5481     5.1115     1.7701 N.pl3        1    LIG   0.0000
  10 C10          5.6924     4.0763     1.5371 C.2          1    LIG   0.0000
  11 C11          2.9759     3.1615     3.8080 C.2          1    LIG   0.0000
  12 S12          1.6785     2.0910     3.5520 S.3          1    LIG   0.0000
  13 H            7.3905     5.2950     1.2634 H            1    LIG   0.0000
  14 H           -0.5834    -0.1868     1.2182 H            1    LIG   0.0000
  15 H            0.5708     1.5603     0.2915 H            1    LIG   0.0000
  16 H            1.5603     0.2915     0.5708 H            1    LIG   0.0000
  17 H            3.2918     2.6708     0.5483 H            1    LIG   0.0000
  18 H            4.4056     5.6913     3.9835 H            1    LIG   0.0000
  19 H            5.7885     3.3676     0.8381 H            1    LIG   0.0000
  20 H            3.2640     3.5808     4.6689 H            1    LIG   0.0000
@<TRIPOS>BOND
   1        1        2 1
   2        2        3 1
   3        3        4 2
   4        4        5 1
   5        5        6 1
   6        6        7 1
   7        7        8 2
   8        8        9 1
   9        9       10 1
  10       10        6 2
  11        5       11 2
  12       11       12 1
  13       12        3 1
  14        9       13 1
  15        1       14 1
  16        2       15 1
  17        2       16 1
  18        4       17 1
  19        7       18 1
  20       10       19 1
  21       11       20 1

@<TRIPOS>MOLECULE

  20   21
SMALL
USER_CHARGES
@<TRIPOS>ATOM
   1 O1          -0.0060     0.3906     1.7956 O.3          1    LIG   0.0000
   2 C2           1.0000     1.0000     1.0000 C.3          1    LIG   0.0000
   3 C3           1.8772     1.8772     1.8772 C.2          1    LIG   0.0000
   4 C4           2.9533     2.6221     1.4880 C.2          1    LIG   0.0000
   5 C5           3.5318     3.3180     2.5790 C.2          1    LIG   0.0000
   6 C6           4.6798     4.1953     2.4429 C.2          1    LIG   0.0000
   7 C7           5.7231     4.0653     1.4996 C.2          1    LIG   0.0000
   8 N8           6.5505     5.0580     1.7213 N.2          1    LIG   0.0000
   9 N9           6.1256     5.8122     2.7227 N.pl3        1    LIG   0.0000
  10 C10          4.9549     5.2986     3.1960 C.2          1    LIG   0.0000
  11 C11          2.9759     3.1615     3.8080 C.2          1    LIG   0.0000
  12 S12          1.6785     2.0910     3.5520 S.3          1    LIG   0.0000
  13 H            6.5881     6.6259     3.0747 H            1    LIG   0.0000
  14 H           -0.5834    -0.1868     1.2182 H            1    LIG   0.0000
  15 H            0.5708     1.5603     0.2915 H            1    LIG   0.0000
  16 H            1.5603     0.2915     0.5708 H            1    LIG   0.0000
  17 H            3.2918     2.6708     0.5483 H            1    LIG   0.0000
  18 H            5.8130     3.3559     0.8005 H            1    LIG   0.0000
  19 H            4.4050     5.6604     3.9488 H            1    LIG   0.0000
  20 H            3.2640     3.5808     4.6689 H            1    LIG   0.0000
@<TRIPOS>BOND
   1        1        2 1
   2        2        3 1
   3        3        4 2
   4        4        5 1
   5        5        6 1
   6        6        7 1
   7        7        8 2
   8        8        9 1
   9        9       10 1
  10       10        6 2
  11        5       11 2
  12       11       12 1
  13       12        3 1
  14        9       13 1
  15        1       14 1
  16        2       15 1
  17        2       16 1
  18        4       17 1
  19        7       18 1
  20       10       19 1
  21       11       20 1

@<TRIPOS>MOLECULE

  20   21
SMALL
USER_CHARGES
@<TRIPOS>ATOM
   1 O1          -0.0060     0.3906     1.7956 O.3          1    LIG   0.0000
   2 C2           1.0000     1.0000     1.0000 C.3          1    LIG   0.0000
   3 C3           1.8772     1.8772     1.8772 C.2          1    LIG   0.0000
   4 C4           2.9533     2.6221     1.4880 C.2          1    LIG   0.0000
   5 C5           3.5318     3.3180     2.5790 C.2          1    LIG   0.0000
   6 C6           4.6798     4.1953     2.4429 C.2          1    LIG   0.0000
   7 C7           5.8040     4.2383     3.2971 C.2          1    LIG   0.0000
   8 N8           6.5990     5.1648     2.8186 N.2          1    LIG   0.0000
   9 N9           6.0817     5.7160     1.7321 N.pl3        1    LIG   0.0000
  10 C10          4.8794     5.1296     1.4695 C.2          1    LIG   0.0000
  11 C11          2.9759     3.1615     3.8080 C.2          1    LIG   0.0000
  12 S12          1.6785     2.0910     3.5520 S.3          1    LIG   0.0000
  13 H            6.5040     6.4439     1.1919 H            1    LIG   0.0000
  14 H           -0.5834    -0.1868     1.2182 H            1    LIG   0.0000
  15 H            0.5708     1.5603     0.2915 H            1    LIG   0.0000
  16 H            1.5603     0.2915     0.5708 H            1    LIG   0.0000
  17 H            3.2918     2.6708     0.5483 H            1    LIG   0.0000
  18 H            5.9623     3.6736     4.1070 H            1    LIG   0.0000
  19 H            4.2636     5.3430     0.7110 H            1    LIG   0.0000
  20 H            3.2640     3.5808     4.6689 H            1    LIG   0.0000
@<TRIPOS>BOND
   1        1        2 1
   2        2        3 1
   3        3        4 2
   4        4        5 1
   5        5        6 1
   6        6        7 1
   7        7        8 2
   8        8        9 1
   9        9       10 1
  10       10        6 2
  11        5       11 2
  12       11       12 1
  13       12        3 1
  14        9       13 1
  15        1       14 1
  16        2       15 1
  17        2       16 1
  18        4       17 1
  19        7       18 1
  20       10       19 1
  21       11       20 1

@<TRIPOS>MOLECULE

  20   21
SMALL
USER_CHARGES
@<TRIPOS>ATOM
   1 O1          -0.0060     0.3906     1.7956 O.3          1    LIG   0.0000
   2 C2           1.0000     1.0000     1.0000 C.3          1    LIG   0.0000
   3 C3           1.8772     1.8772     1.8772 C.2          1    LIG   0.0000
   4 C4           2.9533     2.6221     1.4880 C.2          1    LIG   0.0000
   5 C5           3.5318     3.3180     2.5790 C.2          1    LIG   0.0000
   6 C6           4.6798     4.1953     2.4429 C.2          1    LIG   0.0000
   7 C7           4.8332     5.2284     1.4919 C.2          1    LIG   0.0000
   8 N8           6.0071     5.7681     1.7155 N.2          1    LIG   0.0000
   9 N9           6.6162     5.1711     2.7278 N.pl3        1    LIG   0.0000
  10 C10          5.8099     4.1815     3.2062 C.2          1    LIG   0.0000
  11 C11          2.9759     3.1615     3.8080 C.2          1    LIG   0.0000
  12 S12          1.6785     2.0910     3.5520 S.3          1    LIG   0.0000
  13 H            7.5203     5.4076     3.0836 H            1    LIG   0.0000
  14 H           -0.5834    -0.1868     1.2182 H            1    LIG   0.0000
  15 H            0.5708     1.5603     0.2915 H            1    LIG   0.0000
  16 H            1.5603     0.2915     0.5708 H            1    LIG   0.0000
  17 H            3.2918     2.6708     0.5483 H            1    LIG   0.0000
  18 H            4.1761     5.4956     0.7870 H            1    LIG   0.0000
  19 H            6.0085     3.5654     3.9684 H            1    LIG   0.0000
  20 H            3.2640     3.5808     4.6689 H            1    LIG   0.0000
@<TRIPOS>BOND
   1        1        2 1
   2        2        3 1
   3        3        4 2
   4        4        5 1
   5        5        6 1
   6        6        7 1
   7        7        8 2
   8        8        9 1
   9        9       10 1
  10       10        6 2
  11        5       11 2
  12       11       12 1
  13       12        3 1
  14        9       13 1
  15        1       14 1
  16        2       15 1
  17        2       16 1
  18        4       17 1
  19        7       18 1
  20       10       19 1
  21       11       20 1

@<TRIPOS>MOLECULE

  20   21
SMALL
USER_CHARGES
@<TRIPOS>ATOM
   1 O1          -0.0060     0.3906     1.7956 O.3          1    LIG   0.0000
   2 C2           1.0000     1.0000     1.0000 C.3          1    LIG   0.0000
   3 C3           1.8772     1.8772     1.8772 C.2          1    LIG   0.0000
   4 C4           1.7557     2.0868     3.2209 C.2          1    LIG   0.0000
   5 C5           2.7540     2.9679     3.7068 C.2          1    LIG   0.0000
   6 C6           2.8656     3.3500     5.1024 C.2          1    LIG   0.0000
   7 C7           4.0573     3.6797     5.7854 C.2          1    LIG   0.0000
   8 N8           3.7130     3.9609     7.0190 N.2          1    LIG   0.0000
   9 N9           2.4050     3.8416     7.1831 N.pl3        1    LIG   0.0000
  10 C10          1.8448     3.4609     6.0001 C.2          1    LIG   0.0000
  11 C11          3.6544     3.4688     2.8223 C.2          1    LIG   0.0000
  12 S12          3.2025     2.7900     1.3290 S.3          1    LIG   0.0000
  13 H            1.9087     4.0042     8.0359 H            1    LIG   0.0000
  14 H           -0.5834    -0.1868     1.2182 H            1    LIG   0.0000
  15 H            0.5708     1.5603     0.2915 H            1    LIG   0.0000
  16 H            1.5603     0.2915     0.5708 H            1    LIG   0.0000
  17 H            1.0488     1.6698     3.7923 H            1    LIG   0.0000
  18 H            4.9813     3.6956     5.4034 H            1    LIG   0.0000
  19 H            0.8743     3.2952     5.8247 H            1    LIG   0.0000
  20 H            4.4118     4.0950     3.0068 H            1    LIG   0.0000
@<TRIPOS>BOND
   1        1        2 1
   2        2        3 1
   3        3        4 2
   4        4        5 1
   5        5        6 1
   6        6        7 1
   7        7        8 2
   8        8        9 1
   9        9       10 1
  10       10        6 2
  11        5       11 2
  12       11       12 1
  13       12        3 1
  14        9       13 1
  15        1       14 1
  16        2       15 1
  17        2       16 1
  18        4       17 1
  19        7       18 1
  20       10       19 1
  21       11       20 1

@<TRIPOS>MOLECULE

  20   21
SMALL
USER_CHARGES
@<TRIPOS>ATOM
   1 O1          -0.0060     0.3906     1.7956 O.3          1    LIG   0.0000
   2 C2           1.0000     1.0000     1.0000 C.3          1    LIG   0.0000
   3 C3           1.8772     1.8772     1.8772 C.2          1    LIG   0.0000
   4 C4           1.7557     2.0868     3.2209 C.2          1    LIG   0.0000
   5 C5           2.7540     2.9679     3.7068 C.2          1    LIG   0.0000
   6 C6           2.8656     3.3500     5.1024 C.2          1    LIG   0.0000
   7 C7           1.8022     3.4600     6.0257 C.2          1    LIG   0.0000
   8 N8           2.3361     3.8285     7.1652 N.2          1    LIG   0.0000
   9 N9           3.6480     3.9615     7.0510 N.pl3        1    LIG   0.0000
  10 C10          4.0114     3.6677     5.7704 C.2          1    LIG   0.0000
  11 C11          3.6544     3.4688     2.8223 C.2          1    LIG   0.0000
  12 S12          3.2025     2.7900     1.3290 S.3          1    LIG   0.0000
  13 H            4.2711     4.2332     7.7844 H            1    LIG   0.0000
  14 H           -0.5834    -0.1868     1.2182 H            1    LIG   0.0000
  15 H            0.5708     1.5603     0.2915 H            1    LIG   0.0000
  16 H            1.5603     0.2915     0.5708 H            1    LIG   0.0000
  17 H            1.0488     1.6698     3.7923 H            1    LIG   0.0000
  18 H            0.8333     3.2903     5.8458 H            1    LIG   0.0000
  19 H            4.9378     3.6823     5.3940 H            1    LIG   0.0000
  20 H            4.4118     4.0950     3.0068 H            1    LIG   0.0000
@<TRIPOS>BOND
   1        1        2 1
   2        2        3 1
   3        3        4 2
   4        4        5 1
   5        5        6 1
   6        6        7 1
   7        7        8 2
   8        8        9 1
   9        9       10 1
  10       10        6 2
  11        5       11 2
  12       11       12 1
  13       12        3 1
  14        9       13 1
  15        1       14 1
  16        2       15 1
  17        2       16 1
  18        4       17 1
  19        7       18 1
  20       10       19 1
  21       11       20 1

@<TRIPOS>MOLECULE

  20   21
SMALL
USER_CHARGES
@<TRIPOS>ATOM
   1 O1          -0.0060     0.3906     1.7956 O.3          1    LIG   0.0000
   2 C2           1.0000     1.0000     1.0000 C.3          1    LIG   0.0000
   3 C3           1.8772     1.8772     1.8772 C.2          1    LIG   0.0000
   4 C4           1.7557     2.0868     3.2209 C.2          1    LIG   0.0000
   5 C5           2.7540     2.9679     3.7068 C.2          1    LIG   0.0000
   6 C6           2.8656     3.3500     5.1024 C.2          1    LIG   0.0000
   7 C7           2.8691     2.4739     6.2105 C.2          1    LIG   0.0000
   8 N8           2.9866     3.2257     7.2783 N.2          1    LIG   0.0000
   9 N9           3.0605     4.5056     6.9489 N.pl3        1    LIG   0.0000
  10 C10          2.9885     4.6169     5.5922 C.2          1    LIG   0.0000
  11 C11          3.6544     3.4688     2.8223 C.2          1    LIG   0.0000
  12 S12          3.2025     2.7900     1.3290 S.3          1    LIG   0.0000
  13 H            3.1540     5.2667     7.5907 H            1    LIG   0.0000
  14 H           -0.5834    -0.1868     1.2182 H            1    LIG   0.0000
  15 H            0.5708     1.5603     0.2915 H            1    LIG   0.0000
  16 H            1.5603     0.2915     0.5708 H            1    LIG   0.0000
  17 H            1.0488     1.6698     3.7923 H            1    LIG   0.0000
  18 H            2.7964     1.4769     6.1854 H            1    LIG   0.0000
  19 H            3.0197     5.4628     5.0598 H            1    LIG   0.0000
  20 H            4.4118     4.0950     3.0068 H            1    LIG   0.0000
@<TRIPOS>BOND
   1        1        2 1
   2        2        3 1
   3        3        4 2
   4        4        5 1
   5        5        6 1
   6        6        7 1
   7        7        8 2
   8        8        9 1
   9        9       10 1
  10       10        6 2
  11        5       11 2
  12       11       12 1
  13       12        3 1
  14        9       13 1
  15        1       14 1
  16        2       15 1
  17        2       16 1
  18        4       17 1
  19        7       18 1
  20       10       19 1
  21       11       20 1

@<TRIPOS>MOLECULE

  20   21
SMALL
USER_CHARGES
@<TRIPOS>ATOM
   1 O1          -0.0060     0.3906     1.7956 O.3          1    LIG   0.0000
   2 C2           1.0000     1.0000     1.0000 C.3          1    LIG   0.0000
   3 C3           1.8772     1.8772     1.8772 C.2          1    LIG   0.0000
   4 C4           1.6997     3.2004     2.1633 C.2          1    LIG   0.0000
   5 C5           2.7163     3.6930     3.0195 C.2          1    LIG   0.0000
   6 C6           2.7609     5.0641     3.4930 C.2          1    LIG   0.0000
   7 C7           3.2918     5.5052     4.7254 C.2          1    LIG   0.0000
   8 N8           3.1321     6.8063     4.7545 N.2          1    LIG   0.0000
   9 N9           2.5474     7.2352     3.6472 N.pl3        1    LIG   0.0000
  10 C10          2.3026     6.1677     2.8355 C.2          1    LIG   0.0000
  11 C11          3.6884     2.8347     3.4223 C.2          1    LIG   0.0000
  12 S12          3.2840     1.3589     2.6786 S.3          1    LIG   0.0000
  13 H            2.3220     8.1871     3.4398 H            1    LIG   0.0000
  14 H           -0.5834    -0.1868     1.2182 H            1    LIG   0.0000
  15 H            0.5708     1.5603     0.2915 H            1    LIG   0.0000
  16 H            1.5603     0.2915     0.5708 H            1    LIG   0.0000
  17 H            0.9449     3.7543     1.8118 H            1    LIG   0.0000
  18 H            3.7074     4.9371     5.4357 H            1    LIG   0.0000
  19 H            1.8710     6.1895     1.9337 H            1    LIG   0.0000
  20 H            4.4662     3.0267     4.0208 H            1    LIG   0.0000
@<TRIPOS>BOND
   1        1        2 1
   2        2        3 1
   3        3        4 2
   4        4        5 1
   5        5        6 1
   6        6        7 1
   7        7        8 2
   8        8        9 1
   9        9       10 1
  10       10        6 2
  11        5       11 2
  12       11       12 1
  13       12        3 1
  14        9       13 1
  15        1       14 1
  16        2       15 1
  17        2       16 1
  18        4       17 1
  19        7       18 1
  20       10       19 1
  21       11       20 1

@<TRIPOS>MOLECULE

  20   21
SMALL
USER_CHARGES
@<TRIPOS>ATOM
   1 O1          -0.0060     0.3906     1.7956 O.3          1    LIG   0.0000
   2 C2           1.0000     1.0000     1.0000 C.3          1    LIG   0.0000
   3 C3           1.8772     1.8772     1.8772 C.2          1    LIG   0.0000
   4 C4           1.6997     3.2004     2.1633 C.2          1    LIG   0.0000
   5 C5           2.7163     3.6930     3.0195 C.2          1    LIG   0.0000
   6 C6           2.7609     5.0641     3.4930 C.2          1    LIG   0.0000
   7 C7           2.2813     6.2011     2.8055 C.2          1    LIG   0.0000
   8 N8           2.5168     7.2314     3.5816 N.2          1    LIG   0.0000
   9 N9           3.1031     6.8515     4.7058 N.pl3        1    LIG   0.0000
  10 C10          3.2692     5.4987     4.6816 C.2          1    LIG   0.0000
  11 C11          3.6884     2.8347     3.4223 C.2          1    LIG   0.0000
  12 S12          3.2840     1.3589     2.6786 S.3          1    LIG   0.0000
  13 H            3.3792     7.4580     5.4514 H            1    LIG   0.0000
  14 H           -0.5834    -0.1868     1.2182 H            1    LIG   0.0000
  15 H            0.5708     1.5603     0.2915 H            1    LIG   0.0000
  16 H            1.5603     0.2915     0.5708 H            1    LIG   0.0000
  17 H            0.9449     3.7543     1.8118 H            1    LIG   0.0000
  18 H            1.8477     6.2171     1.9046 H            1    LIG   0.0000
  19 H            3.6832     4.9348     5.3962 H            1    LIG   0.0000
  20 H            4.4662     3.0267     4.0208 H            1    LIG   0.0000
@<TRIPOS>BOND
   1        1        2 1
   2        2        3 1
   3        3        4 2
   4        4        5 1
   5        5        6 1
   6        6        7 1
   7        7        8 2
   8        8        9 1
   9        9       10 1
  10       10        6 2
  11        5       11 2
  12       11       12 1
  13       12        3 1
  14        9       13 1
  15        1       14 1
  16        2       15 1
  17        2       16 1
  18        4       17 1
  19        7       18 1
  20       10       19 1
  21       11       20 1

@<TRIPOS>MOLECULE

  20   21
SMALL
USER_CHARGES
@<TRIPOS>ATOM
   1 O1          -0.0060     0.3906     1.7956 O.3          1    LIG   0.0000
   2 C2           1.0000     1.0000     1.0000 C.3          1    LIG   0.0000
   3 C3           1.8772     1.8772     1.8772 C.2          1    LIG   0.0000
   4 C4           1.6997     3.2004     2.1633 C.2          1    LIG   0.0000
   5 C5           2.7163     3.6930     3.0195 C.2          1    LIG   0.0000
   6 C6           2.7609     5.0641     3.4930 C.2          1    LIG   0.0000
   7 C7           3.9229     5.7964     3.8228 C.2          1    LIG   0.0000
   8 N8           3.5181     6.9839     4.2039 N.2          1    LIG   0.0000
   9 N9           2.1990     7.0748     4.1443 N.pl3        1    LIG   0.0000
  10 C10          1.6945     5.8884     3.7014 C.2          1    LIG   0.0000
  11 C11          3.6884     2.8347     3.4223 C.2          1    LIG   0.0000
  12 S12          3.2840     1.3589     2.6786 S.3          1    LIG   0.0000
  13 H            1.6603     7.8822     4.3849 H            1    LIG   0.0000
  14 H           -0.5834    -0.1868     1.2182 H            1    LIG   0.0000
  15 H            0.5708     1.5603     0.2915 H            1    LIG   0.0000
  16 H            1.5603     0.2915     0.5708 H            1    LIG   0.0000
  17 H            0.9449     3.7543     1.8118 H            1    LIG   0.0000
  18 H            4.8679     5.4729     3.7751 H            1    LIG   0.0000
  19 H            0.7303     5.6659     3.5574 H            1    LIG   0.0000
  20 H            4.4662     3.0267     4.0208 H            1    LIG   0.0000
@<TRIPOS>BOND
   1        1        2 1
   2        2        3 1
   3        3        4 2
   4        4        5 1
   5        5        6 1
   6        6        7 1
   7        7        8 2
   8        8        9 1
   9        9       10 1
  10       10        6 2
  11        5       11 2
  12       11       12 1
  13       12        3 1
  14        9       13 1
  15        1       14 1
  16        2       15 1
  17        2       16 1
  18        4       17 1
  19        7       18 1
  20       10       19 1
  21       11       20 1

@<TRIPOS>MOLECULE

  20   21
SMALL
USER_CHARGES
@<TRIPOS>ATOM
   1 O1          -0.0060     0.3906     1.7956 O.3          1    LIG   0.0000
   2 C2           1.0000     1.0000     1.0000 C.3          1    LIG   0.0000
   3 C3           1.8772     1.8772     1.8772 C.2          1    LIG   0.0000
   4 C4           1.6997     3.2004     2.1633 C.2          1    LIG   0.0000
   5 C5           2.7163     3.6930     3.0195 C.2          1    LIG   0.0000
   6 C6           2.7609     5.0641     3.4930 C.2          1    LIG   0.0000
   7 C7           1.6502     5.9099     3.7081 C.2          1    LIG   0.0000
   8 N8           2.1308     7.0538     4.1322 N.2          1    LIG   0.0000
   9 N9           3.4515     7.0119     4.2087 N.pl3        1    LIG   0.0000
  10 C10          3.8773     5.7780     3.8157 C.2          1    LIG   0.0000
  11 C11          3.6884     2.8347     3.4223 C.2          1    LIG   0.0000
  12 S12          3.2840     1.3589     2.6786 S.3          1    LIG   0.0000
  13 H            4.0409     7.7629     4.5063 H            1    LIG   0.0000
  14 H           -0.5834    -0.1868     1.2182 H            1    LIG   0.0000
  15 H            0.5708     1.5603     0.2915 H            1    LIG   0.0000
  16 H            1.5603     0.2915     0.5708 H            1    LIG   0.0000
  17 H            0.9449     3.7543     1.8118 H            1    LIG   0.0000
  18 H            0.6872     5.6813     3.5652 H            1    LIG   0.0000
  19 H            4.8239     5.4584     3.7726 H            1    LIG   0.0000
  20 H            4.4662     3.0267     4.0208 H            1    LIG   0.0000
@<TRIPOS>BOND
   1        1        2 1
   2        2        3 1
   3        3        4 2
   4        4        5 1
   5        5        6 1
   6        6        7 1
   7        7        8 2
   8        8        9 1
   9        9       10 1
  10       10        6 2
  11        5       11 2
  12       11       12 1
  13       12        3 1
  14        9       13 1
  15        1       14 1
  16        2       15 1
  17        2       16 1
  18        4       17 1
  19        7       18 1
  20       10       19 1
  21       11       20 1

