@<TRIPOS>MOLECULE
*****
 20 21 0 0 0
SMALL
USER_CHARGES

@<TRIPOS>ATOM
      1 O1         -0.0060    0.3906    1.7956 O.3     1  LIG1        0.0000
      2 C2          1.0000    1.0000    1.0000 C.3     1  LIG1        0.0000
      3 C3          1.8772    1.8772    1.8772 C.2     1  LIG1        0.0000
      4 C4          3.0092    1.5085    2.5457 C.2     1  LIG1        0.0000
      5 C5          3.5696    2.5928    3.2664 C.2     1  LIG1        0.0000
      6 C6          4.7844    2.4812    4.0524 C.2     1  LIG1        0.0000
      7 C7          5.1052    3.2317    5.2053 C.2     1  LIG1        0.0000
      8 N8          6.2858    2.8201    5.6001 N.2     1  LIG1        0.0000
      9 N9          6.7464    1.8706    4.8011 N.pl3   1  LIG1        0.0000
     10 C10         5.8284    1.6344    3.8215 C.2     1  LIG1        0.0000
     11 C11         2.9419    3.7955    3.2080 C.2     1  LIG1        0.0000
     12 S12         1.5970    3.5221    2.2024 S.3     1  LIG1        0.0000
     13 H           7.6247    1.4027    4.9000 H       1  LIG1        0.0000
     14 H          -0.5834   -0.1868    1.2182 H       1  LIG1        0.0000
     15 H           0.5708    1.5603    0.2915 H       1  LIG1        0.0000
     16 H           1.5603    0.2915    0.5708 H       1  LIG1        0.0000
     17 H           3.3957    0.5864    2.5288 H       1  LIG1        0.0000
     18 H           4.5427    3.9377    5.6355 H       1  LIG1        0.0000
     19 H           5.9054    0.9698    3.0783 H       1  LIG1        0.0000
     20 H           3.2096    4.6491    3.6550 H       1  LIG1        0.0000
@<TRIPOS>BOND
     1     1     2    1
     2     2     3    1
     3     3     4    2
     4     4     5    1
     5     5     6    1
     6     6     7    1
     7     7     8    2
     8     8     9    1
     9     9    10    1
    10    10     6    2
    11     5    11    2
    12    11    12    1
    13    12     3    1
    14     9    13    1
    15     1    14    1
    16     2    15    1
    17     2    16    1
    18     4    17    1
    19     7    18    1
    20    10    19    1
    21    11    20    1
