@<TRIPOS>MOLECULE
*****
 20 21 0 0 0
SMALL
USER_CHARGES

@<TRIPOS>ATOM
      1 O1         -0.0060    0.3906    1.7956 O.3     1  LIG1        0.0000
      2 C2          1.0000    1.0000    1.0000 C.3     1  LIG1        0.0000
      3 C3          1.8772    1.8772    1.8772 C.2     1  LIG1        0.0000
      4 C4          2.9533    2.6221    1.4880 C.2     1  LIG1        0.0000
      5 C5          3.5318    3.3180    2.5790 C.2     1  LIG1        0.0000
      6 C6          4.6798    4.1953    2.4429 C.2     1  LIG1        0.0000
      7 C7          5.7231    4.0653    1.4996 C.2     1  LIG1        0.0000
      8 N8          6.5505    5.0580    1.7213 N.2     1  LIG1        0.0000
      9 N9          6.1256    5.8122    2.7227 N.pl3   1  LIG1        0.0000
     10 C10         4.9549    5.2986    3.1960 C.2     1  LIG1        0.0000
     11 C11         2.9759    3.1615    3.8080 C.2     1  LIG1        0.0000
     12 S12         1.6785    2.0910    3.5520 S.3     1  LIG1        0.0000
     13 H           6.5881    6.6259    3.0747 H       1  LIG1        0.0000
     14 H          -0.5834   -0.1868    1.2182 H       1  LIG1        0.0000
     15 H           0.5708    1.5603    0.2915 H       1  LIG1        0.0000
     16 H           1.5603    0.2915    0.5708 H       1  LIG1        0.0000
     17 H           3.2918    2.6708    0.5483 H       1  LIG1        0.0000
     18 H           5.8130    3.3559    0.8005 H       1  LIG1        0.0000
     19 H           4.4050    5.6604    3.9488 H       1  LIG1        0.0000
     20 H           3.2640    3.5808    4.6689 H       1  LIG1        0.0000
@<TRIPOS>BOND
     1     1     2    1
     2     2     3    1
     3     3     4    2
     4     4     5    1
     5     5     6    1
     6     6     7    1
     7     7     8    2
     8     8     9    1
     9     9    10    1
    10    10     6    2
    11     5    11    2
    12    11    12    1
    13    12     3    1
    14     9    13    1
    15     1    14    1
    16     2    15    1
    17     2    16    1
    18     4    17    1
    19     7    18    1
    20    10    19    1
    21    11    20    1
