@<TRIPOS>MOLECULE
*****
 20 21 0 0 0
SMALL
USER_CHARGES

@<TRIPOS>ATOM
      1 O1         -0.0060    0.3906    1.7956 O.3     1  LIG1        0.0000
      2 C2          1.0000    1.0000    1.0000 C.3     1  LIG1        0.0000
      3 C3          1.8772    1.8772    1.8772 C.2     1  LIG1        0.0000
      4 C4          1.7557    2.0868    3.2209 C.2     1  LIG1        0.0000
      5 C5          2.7540    2.9679    3.7068 C.2     1  LIG1        0.0000
      6 C6          2.8656    3.3500    5.1024 C.2     1  LIG1        0.0000
      7 C7          2.8691    2.4739    6.2105 C.2     1  LIG1        0.0000
      8 N8          2.9866    3.2257    7.2783 N.2     1  LIG1        0.0000
      9 N9          3.0605    4.5056    6.9489 N.pl3   1  LIG1        0.0000
     10 C10         2.9885    4.6169    5.5922 C.2     1  LIG1        0.0000
     11 C11         3.6544    3.4688    2.8223 C.2     1  LIG1        0.0000
     12 S12         3.2025    2.7900    1.3290 S.3     1  LIG1        0.0000
     13 H           3.1540    5.2667    7.5907 H       1  LIG1        0.0000
     14 H          -0.5834   -0.1868    1.2182 H       1  LIG1        0.0000
     15 H           0.5708    1.5603    0.2915 H       1  LIG1        0.0000
     16 H           1.5603    0.2915    0.5708 H       1  LIG1        0.0000
     17 H           1.0488    1.6698    3.7923 H       1  LIG1        0.0000
     18 H           2.7964    1.4769    6.1854 H       1  LIG1        0.0000
     19 H           3.0197    5.4628    5.0598 H       1  LIG1        0.0000
     20 H           4.4118    4.0950    3.0068 H       1  LIG1        0.0000
@<TRIPOS>BOND
     1     1     2    1
     2     2     3    1
     3     3     4    2
     4     4     5    1
     5     5     6    1
     6     6     7    1
     7     7     8    2
     8     8     9    1
     9     9    10    1
    10    10     6    2
    11     5    11    2
    12    11    12    1
    13    12     3    1
    14     9    13    1
    15     1    14    1
    16     2    15    1
    17     2    16    1
    18     4    17    1
    19     7    18    1
    20    10    19    1
    21    11    20    1
