@<TRIPOS>MOLECULE
*****
 20 21 0 0 0
SMALL
USER_CHARGES

@<TRIPOS>ATOM
      1 O1         -0.0060    0.3906    1.7956 O.3     1  LIG1        0.0000
      2 C2          1.0000    1.0000    1.0000 C.3     1  LIG1        0.0000
      3 C3          1.8772    1.8772    1.8772 C.2     1  LIG1        0.0000
      4 C4          1.6997    3.2004    2.1633 C.2     1  LIG1        0.0000
      5 C5          2.7163    3.6930    3.0195 C.2     1  LIG1        0.0000
      6 C6          2.7609    5.0641    3.4930 C.2     1  LIG1        0.0000
      7 C7          3.9229    5.7964    3.8228 C.2     1  LIG1        0.0000
      8 N8          3.5181    6.9839    4.2039 N.2     1  LIG1        0.0000
      9 N9          2.1990    7.0748    4.1443 N.pl3   1  LIG1        0.0000
     10 C10         1.6945    5.8884    3.7014 C.2     1  LIG1        0.0000
     11 C11         3.6884    2.8347    3.4223 C.2     1  LIG1        0.0000
     12 S12         3.2840    1.3589    2.6786 S.3     1  LIG1        0.0000
     13 H           1.6603    7.8822    4.3849 H       1  LIG1        0.0000
     14 H          -0.5834   -0.1868    1.2182 H       1  LIG1        0.0000
     15 H           0.5708    1.5603    0.2915 H       1  LIG1        0.0000
     16 H           1.5603    0.2915    0.5708 H       1  LIG1        0.0000
     17 H           0.9449    3.7543    1.8118 H       1  LIG1        0.0000
     18 H           4.8679    5.4729    3.7751 H       1  LIG1        0.0000
     19 H           0.7303    5.6659    3.5574 H       1  LIG1        0.0000
     20 H           4.4662    3.0267    4.0208 H       1  LIG1        0.0000
@<TRIPOS>BOND
     1     1     2    1
     2     2     3    1
     3     3     4    2
     4     4     5    1
     5     5     6    1
     6     6     7    1
     7     7     8    2
     8     8     9    1
     9     9    10    1
    10    10     6    2
    11     5    11    2
    12    11    12    1
    13    12     3    1
    14     9    13    1
    15     1    14    1
    16     2    15    1
    17     2    16    1
    18     4    17    1
    19     7    18    1
    20    10    19    1
    21    11    20    1
