@<TRIPOS>MOLECULE

  27   28
SMALL
USER_CHARGES
@<TRIPOS>ATOM
   1 C1          -1.3038    -0.7819     0.0087 C.3          1    LIG   0.0000
   2 C2          -0.0068     0.0139     0.0004 C.ar         1    LIG   0.0000
   3 C3           1.1961    -0.6854    -0.0162 C.ar         1    LIG   0.0000
   4 C4           2.3918     0.0260    -0.0240 C.ar         1    LIG   0.0000
   5 C5           2.3735     1.4167    -0.0145 C.ar         1    LIG   0.0000
   6 N6           3.5801     2.1272    -0.0211 N.2          1    LIG   1.0000
   7 O7           3.5698     3.3371    -0.0129 O.co2        1    LIG   0.0000
   8 O8           4.6417     1.5263    -0.0351 O.co2        1    LIG  -1.0000
   9 C9           1.1484     2.0758     0.0017 C.ar         1    LIG   0.0000
  10 O10          1.1492     3.4285     0.0113 O.3          1    LIG   0.0000
  11 C11          1.1367     4.0181    -1.2027 C.ar         1    LIG   0.0000
  12 C12          1.1365     5.4072    -1.2851 C.ar         1    LIG   0.0000
  13 C13          1.1231     6.0127    -2.5373 C.ar         1    LIG   0.0000
  14 C14          1.1111     5.2311    -3.6876 C.ar         1    LIG   0.0000
  15 F15          1.0994     5.8103    -4.8846 F            1    LIG   0.0000
  16 C16          1.1109     3.8427    -3.6050 C.ar         1    LIG   0.0000
  17 C17          1.1233     3.2369    -2.3533 C.ar         1    LIG   0.0000
  18 N18          0.0107     1.3587     0.0085 N.ar         1    LIG   0.0000
  19 H           -1.0949    -1.7599     0.0006 H            1    LIG   0.0000
  20 H           -1.8261    -0.5595     0.8319 H            1    LIG   0.0000
  21 H           -1.8427    -0.5494    -0.8009 H            1    LIG   0.0000
  22 H            1.2011    -1.6854    -0.0225 H            1    LIG   0.0000
  23 H            3.2642    -0.4625    -0.0364 H            1    LIG   0.0000
  24 H            1.1459     5.9634    -0.4541 H            1    LIG   0.0000
  25 H            1.1222     7.0100    -2.6104 H            1    LIG   0.0000
  26 H            1.1019     3.2866    -4.4361 H            1    LIG   0.0000
  27 H            1.1226     2.2396    -2.2805 H            1    LIG   0.0000
@<TRIPOS>BOND
   1        1        2 1
   2        2        3 ar
   3        3        4 ar
   4        4        5 ar
   5        5        6 1
   6        6        7 ar
   7        6        8 ar
   8        5        9 ar
   9        9       10 1
  10       10       11 1
  11       11       12 ar
  12       12       13 ar
  13       13       14 ar
  14       14       15 1
  15       14       16 ar
  16       16       17 ar
  17       17       11 ar
  18        9       18 ar
  19       18        2 ar
  20        1       19 1
  21        1       20 1
  22        1       21 1
  23        3       22 1
  24        4       23 1
  25       12       24 1
  26       13       25 1
  27       16       26 1
  28       17       27 1

@<TRIPOS>MOLECULE

  27   28
SMALL
USER_CHARGES
@<TRIPOS>ATOM
   1 C1          -1.3038    -0.7819     0.0087 C.3          1    LIG   0.0000
   2 C2          -0.0068     0.0139     0.0004 C.ar         1    LIG   0.0000
   3 C3           1.1961    -0.6854    -0.0162 C.ar         1    LIG   0.0000
   4 C4           2.3918     0.0260    -0.0240 C.ar         1    LIG   0.0000
   5 C5           2.3735     1.4167    -0.0145 C.ar         1    LIG   0.0000
   6 N6           3.5801     2.1272    -0.0211 N.2          1    LIG   1.0000
   7 O7           4.1113     2.4271     1.0239 O.co2        1    LIG   0.0000
   8 O8           4.0957     2.4438    -1.0805 O.co2        1    LIG  -1.0000
   9 C9           1.1484     2.0758     0.0017 C.ar         1    LIG   0.0000
  10 O10          1.1492     3.4285     0.0113 O.3          1    LIG   0.0000
  11 C11          1.1367     4.0181    -1.2027 C.ar         1    LIG   0.0000
  12 C12         -0.0830     4.3161    -1.8025 C.ar         1    LIG   0.0000
  13 C13         -0.0933     4.9233    -3.0539 C.ar         1    LIG   0.0000
  14 C14          1.1058     5.2260    -3.6900 C.ar         1    LIG   0.0000
  15 F15          1.0956     5.8074    -4.8860 F            1    LIG   0.0000
  16 C16          2.3248     4.9276    -3.0905 C.ar         1    LIG   0.0000
  17 C17          2.3357     4.3197    -1.8398 C.ar         1    LIG   0.0000
  18 N18          0.0107     1.3587     0.0085 N.ar         1    LIG   0.0000
  19 H           -1.0949    -1.7599     0.0006 H            1    LIG   0.0000
  20 H           -1.8261    -0.5595     0.8319 H            1    LIG   0.0000
  21 H           -1.8427    -0.5494    -0.8009 H            1    LIG   0.0000
  22 H            1.2011    -1.6854    -0.0225 H            1    LIG   0.0000
  23 H            3.2642    -0.4625    -0.0364 H            1    LIG   0.0000
  24 H           -0.9417     4.0965    -1.3395 H            1    LIG   0.0000
  25 H           -0.9631     5.1422    -3.4963 H            1    LIG   0.0000
  26 H            3.1835     5.1476    -3.5535 H            1    LIG   0.0000
  27 H            3.2056     4.0995    -1.3985 H            1    LIG   0.0000
@<TRIPOS>BOND
   1        1        2 1
   2        2        3 ar
   3        3        4 ar
   4        4        5 ar
   5        5        6 1
   6        6        7 ar
   7        6        8 ar
   8        5        9 ar
   9        9       10 1
  10       10       11 1
  11       11       12 ar
  12       12       13 ar
  13       13       14 ar
  14       14       15 1
  15       14       16 ar
  16       16       17 ar
  17       17       11 ar
  18        9       18 ar
  19       18        2 ar
  20        1       19 1
  21        1       20 1
  22        1       21 1
  23        3       22 1
  24        4       23 1
  25       12       24 1
  26       13       25 1
  27       16       26 1
  28       17       27 1

@<TRIPOS>MOLECULE

  27   28
SMALL
USER_CHARGES
@<TRIPOS>ATOM
   1 C1          -1.3038    -0.7819     0.0087 C.3          1    LIG   0.0000
   2 C2          -0.0068     0.0139     0.0004 C.ar         1    LIG   0.0000
   3 C3           1.1961    -0.6854    -0.0162 C.ar         1    LIG   0.0000
   4 C4           2.3918     0.0260    -0.0240 C.ar         1    LIG   0.0000
   5 C5           2.3735     1.4167    -0.0145 C.ar         1    LIG   0.0000
   6 N6           3.5801     2.1272    -0.0211 N.2          1    LIG   1.0000
   7 O7           3.5698     3.3371    -0.0129 O.co2        1    LIG   0.0000
   8 O8           4.6417     1.5263    -0.0351 O.co2        1    LIG  -1.0000
   9 C9           1.1484     2.0758     0.0017 C.ar         1    LIG   0.0000
  10 O10          1.1492     3.4285     0.0113 O.3          1    LIG   0.0000
  11 C11          0.7209     4.0178    -1.1249 C.ar         1    LIG   0.0000
  12 C12         -0.6311     4.3127    -1.2712 C.ar         1    LIG   0.0000
  13 C13         -1.0703     4.9195    -2.4432 C.ar         1    LIG   0.0000
  14 C14         -0.1617     5.2249    -3.4509 C.ar         1    LIG   0.0000
  15 F15         -0.5818     5.8061    -4.5709 F            1    LIG   0.0000
  16 C16          1.1895     4.9297    -3.3046 C.ar         1    LIG   0.0000
  17 C17          1.6289     4.3222    -2.1334 C.ar         1    LIG   0.0000
  18 N18          0.0107     1.3587     0.0085 N.ar         1    LIG   0.0000
  19 H           -1.0949    -1.7599     0.0006 H            1    LIG   0.0000
  20 H           -1.8261    -0.5595     0.8319 H            1    LIG   0.0000
  21 H           -1.8427    -0.5494    -0.8009 H            1    LIG   0.0000
  22 H            1.2011    -1.6854    -0.0225 H            1    LIG   0.0000
  23 H            3.2642    -0.4625    -0.0364 H            1    LIG   0.0000
  24 H           -1.2792     4.0910    -0.5425 H            1    LIG   0.0000
  25 H           -2.0394     5.1361    -2.5613 H            1    LIG   0.0000
  26 H            1.8375     5.1517    -4.0332 H            1    LIG   0.0000
  27 H            2.5978     4.1041    -2.0164 H            1    LIG   0.0000
@<TRIPOS>BOND
   1        1        2 1
   2        2        3 ar
   3        3        4 ar
   4        4        5 ar
   5        5        6 1
   6        6        7 ar
   7        6        8 ar
   8        5        9 ar
   9        9       10 1
  10       10       11 1
  11       11       12 ar
  12       12       13 ar
  13       13       14 ar
  14       14       15 1
  15       14       16 ar
  16       16       17 ar
  17       17       11 ar
  18        9       18 ar
  19       18        2 ar
  20        1       19 1
  21        1       20 1
  22        1       21 1
  23        3       22 1
  24        4       23 1
  25       12       24 1
  26       13       25 1
  27       16       26 1
  28       17       27 1

@<TRIPOS>MOLECULE

  27   28
SMALL
USER_CHARGES
@<TRIPOS>ATOM
   1 C1          -1.3038    -0.7819     0.0087 C.3          1    LIG   0.0000
   2 C2          -0.0068     0.0139     0.0004 C.ar         1    LIG   0.0000
   3 C3           1.1961    -0.6854    -0.0162 C.ar         1    LIG   0.0000
   4 C4           2.3918     0.0260    -0.0240 C.ar         1    LIG   0.0000
   5 C5           2.3735     1.4167    -0.0145 C.ar         1    LIG   0.0000
   6 N6           3.5801     2.1272    -0.0211 N.2          1    LIG   1.0000
   7 O7           4.1113     2.4271     1.0239 O.co2        1    LIG   0.0000
   8 O8           4.0957     2.4438    -1.0805 O.co2        1    LIG  -1.0000
   9 C9           1.1484     2.0758     0.0017 C.ar         1    LIG   0.0000
  10 O10          1.1492     3.4285     0.0113 O.3          1    LIG   0.0000
  11 C11          0.5294     4.0172    -1.0332 C.ar         1    LIG   0.0000
  12 C12          0.4832     5.4062    -1.1027 C.ar         1    LIG   0.0000
  13 C13         -0.1565     6.0108    -2.1797 C.ar         1    LIG   0.0000
  14 C14         -0.7394     5.2284    -3.1708 C.ar         1    LIG   0.0000
  15 F15         -1.3501     5.8068    -4.2010 F            1    LIG   0.0000
  16 C16         -0.6935     3.8401    -3.1009 C.ar         1    LIG   0.0000
  17 C17         -0.0548     3.2352    -2.0239 C.ar         1    LIG   0.0000
  18 N18          0.0107     1.3587     0.0085 N.ar         1    LIG   0.0000
  19 H           -1.0949    -1.7599     0.0006 H            1    LIG   0.0000
  20 H           -1.8261    -0.5595     0.8319 H            1    LIG   0.0000
  21 H           -1.8427    -0.5494    -0.8009 H            1    LIG   0.0000
  22 H            1.2011    -1.6854    -0.0225 H            1    LIG   0.0000
  23 H            3.2642    -0.4625    -0.0364 H            1    LIG   0.0000
  24 H            0.9049     5.9630    -0.3870 H            1    LIG   0.0000
  25 H           -0.1974     7.0081    -2.2414 H            1    LIG   0.0000
  26 H           -1.1149     3.2834    -3.8168 H            1    LIG   0.0000
  27 H           -0.0156     2.2379    -1.9617 H            1    LIG   0.0000
@<TRIPOS>BOND
   1        1        2 1
   2        2        3 ar
   3        3        4 ar
   4        4        5 ar
   5        5        6 1
   6        6        7 ar
   7        6        8 ar
   8        5        9 ar
   9        9       10 1
  10       10       11 1
  11       11       12 ar
  12       12       13 ar
  13       13       14 ar
  14       14       15 1
  15       14       16 ar
  16       16       17 ar
  17       17       11 ar
  18        9       18 ar
  19       18        2 ar
  20        1       19 1
  21        1       20 1
  22        1       21 1
  23        3       22 1
  24        4       23 1
  25       12       24 1
  26       13       25 1
  27       16       26 1
  28       17       27 1

@<TRIPOS>MOLECULE

  27   28
SMALL
USER_CHARGES
@<TRIPOS>ATOM
   1 C1          -1.3038    -0.7819     0.0087 C.3          1    LIG   0.0000
   2 C2          -0.0068     0.0139     0.0004 C.ar         1    LIG   0.0000
   3 C3           1.1961    -0.6854    -0.0162 C.ar         1    LIG   0.0000
   4 C4           2.3918     0.0260    -0.0240 C.ar         1    LIG   0.0000
   5 C5           2.3735     1.4167    -0.0145 C.ar         1    LIG   0.0000
   6 N6           3.5801     2.1272    -0.0211 N.2          1    LIG   1.0000
   7 O7           4.1113     2.4271     1.0239 O.co2        1    LIG   0.0000
   8 O8           4.0957     2.4438    -1.0805 O.co2        1    LIG  -1.0000
   9 C9           1.1484     2.0758     0.0017 C.ar         1    LIG   0.0000
  10 O10          1.1492     3.4285     0.0113 O.3          1    LIG   0.0000
  11 C11          1.7475     4.0167    -1.0459 C.ar         1    LIG   0.0000
  12 C12          2.6160     5.0824    -0.8307 C.ar         1    LIG   0.0000
  13 C13          3.2311     5.6874    -1.9218 C.ar         1    LIG   0.0000
  14 C14          2.9758     5.2254    -3.2084 C.ar         1    LIG   0.0000
  15 F15          3.5649     5.8034    -4.2513 F            1    LIG   0.0000
  16 C16          2.1074     4.1605    -3.4233 C.ar         1    LIG   0.0000
  17 C17          1.4915     3.5559    -2.3329 C.ar         1    LIG   0.0000
  18 N18          0.0107     1.3587     0.0085 N.ar         1    LIG   0.0000
  19 H           -1.0949    -1.7599     0.0006 H            1    LIG   0.0000
  20 H           -1.8261    -0.5595     0.8319 H            1    LIG   0.0000
  21 H           -1.8427    -0.5494    -0.8009 H            1    LIG   0.0000
  22 H            1.2011    -1.6854    -0.0225 H            1    LIG   0.0000
  23 H            3.2642    -0.4625    -0.0364 H            1    LIG   0.0000
  24 H            2.7958     5.4093     0.0971 H            1    LIG   0.0000
  25 H            3.8569     6.4546    -1.7810 H            1    LIG   0.0000
  26 H            1.9280     3.8334    -4.3511 H            1    LIG   0.0000
  27 H            0.8645     2.7898    -2.4742 H            1    LIG   0.0000
@<TRIPOS>BOND
   1        1        2 1
   2        2        3 ar
   3        3        4 ar
   4        4        5 ar
   5        5        6 1
   6        6        7 ar
   7        6        8 ar
   8        5        9 ar
   9        9       10 1
  10       10       11 1
  11       11       12 ar
  12       12       13 ar
  13       13       14 ar
  14       14       15 1
  15       14       16 ar
  16       16       17 ar
  17       17       11 ar
  18        9       18 ar
  19       18        2 ar
  20        1       19 1
  21        1       20 1
  22        1       21 1
  23        3       22 1
  24        4       23 1
  25       12       24 1
  26       13       25 1
  27       16       26 1
  28       17       27 1

@<TRIPOS>MOLECULE

  27   28
SMALL
USER_CHARGES
@<TRIPOS>ATOM
   1 C1          -1.3038    -0.7819     0.0087 C.3          1    LIG   0.0000
   2 C2          -0.0068     0.0139     0.0004 C.ar         1    LIG   0.0000
   3 C3           1.1961    -0.6854    -0.0162 C.ar         1    LIG   0.0000
   4 C4           2.3918     0.0260    -0.0240 C.ar         1    LIG   0.0000
   5 C5           2.3735     1.4167    -0.0145 C.ar         1    LIG   0.0000
   6 N6           3.5801     2.1272    -0.0211 N.2          1    LIG   1.0000
   7 O7           3.5698     3.3371    -0.0129 O.co2        1    LIG   0.0000
   8 O8           4.6417     1.5263    -0.0351 O.co2        1    LIG  -1.0000
   9 C9           1.1484     2.0758     0.0017 C.ar         1    LIG   0.0000
  10 O10          1.1492     3.4285     0.0113 O.3          1    LIG   0.0000
  11 C11          1.1622     4.0009     1.2335 C.ar         1    LIG   0.0000
  12 C12          1.1639     5.3887     1.3354 C.ar         1    LIG   0.0000
  13 C13          1.1779     5.9764     2.5960 C.ar         1    LIG   0.0000
  14 C14          1.1891     5.1787     3.7352 C.ar         1    LIG   0.0000
  15 F15          1.2014     5.7409     4.9403 F            1    LIG   0.0000
  16 C16          1.1878     3.7916     3.6330 C.ar         1    LIG   0.0000
  17 C17          1.1747     3.2035     2.3729 C.ar         1    LIG   0.0000
  18 N18          0.0107     1.3587     0.0085 N.ar         1    LIG   0.0000
  19 H           -1.0949    -1.7599     0.0006 H            1    LIG   0.0000
  20 H           -1.8261    -0.5595     0.8319 H            1    LIG   0.0000
  21 H           -1.8427    -0.5494    -0.8009 H            1    LIG   0.0000
  22 H            1.2011    -1.6854    -0.0225 H            1    LIG   0.0000
  23 H            3.2642    -0.4625    -0.0364 H            1    LIG   0.0000
  24 H            1.1551     5.9566     0.5123 H            1    LIG   0.0000
  25 H            1.1799     6.9726     2.6832 H            1    LIG   0.0000
  26 H            1.1962     3.2238     4.4562 H            1    LIG   0.0000
  27 H            1.1744     2.2073     2.2860 H            1    LIG   0.0000
@<TRIPOS>BOND
   1        1        2 1
   2        2        3 ar
   3        3        4 ar
   4        4        5 ar
   5        5        6 1
   6        6        7 ar
   7        6        8 ar
   8        5        9 ar
   9        9       10 1
  10       10       11 1
  11       11       12 ar
  12       12       13 ar
  13       13       14 ar
  14       14       15 1
  15       14       16 ar
  16       16       17 ar
  17       17       11 ar
  18        9       18 ar
  19       18        2 ar
  20        1       19 1
  21        1       20 1
  22        1       21 1
  23        3       22 1
  24        4       23 1
  25       12       24 1
  26       13       25 1
  27       16       26 1
  28       17       27 1

@<TRIPOS>MOLECULE

  27   28
SMALL
USER_CHARGES
@<TRIPOS>ATOM
   1 C1          -1.3038    -0.7819     0.0087 C.3          1    LIG   0.0000
   2 C2          -0.0068     0.0139     0.0004 C.ar         1    LIG   0.0000
   3 C3           1.1961    -0.6854    -0.0162 C.ar         1    LIG   0.0000
   4 C4           2.3918     0.0260    -0.0240 C.ar         1    LIG   0.0000
   5 C5           2.3735     1.4167    -0.0145 C.ar         1    LIG   0.0000
   6 N6           3.5801     2.1272    -0.0211 N.2          1    LIG   1.0000
   7 O7           4.1113     2.4271     1.0239 O.co2        1    LIG   0.0000
   8 O8           4.0957     2.4438    -1.0805 O.co2        1    LIG  -1.0000
   9 C9           1.1484     2.0758     0.0017 C.ar         1    LIG   0.0000
  10 O10          1.1492     3.4285     0.0113 O.3          1    LIG   0.0000
  11 C11          1.5780     4.0012     1.1556 C.ar         1    LIG   0.0000
  12 C12          2.4681     5.0689     1.0908 C.ar         1    LIG   0.0000
  13 C13          2.9092     5.6573     2.2715 C.ar         1    LIG   0.0000
  14 C14          2.4599     5.1781     3.4974 C.ar         1    LIG   0.0000
  15 F15          2.8811     5.7415     4.6260 F            1    LIG   0.0000
  16 C16          1.5707     4.1107     3.5620 C.ar         1    LIG   0.0000
  17 C17          1.1301     3.5215     2.3818 C.ar         1    LIG   0.0000
  18 N18          0.0107     1.3587     0.0085 N.ar         1    LIG   0.0000
  19 H           -1.0949    -1.7599     0.0006 H            1    LIG   0.0000
  20 H           -1.8261    -0.5595     0.8319 H            1    LIG   0.0000
  21 H           -1.8427    -0.5494    -0.8009 H            1    LIG   0.0000
  22 H            1.2011    -1.6854    -0.0225 H            1    LIG   0.0000
  23 H            3.2642    -0.4625    -0.0364 H            1    LIG   0.0000
  24 H            2.7868     5.4090     0.2060 H            1    LIG   0.0000
  25 H            3.5494     6.4248     2.2389 H            1    LIG   0.0000
  26 H            1.2518     3.7708     4.4467 H            1    LIG   0.0000
  27 H            0.4912     2.7529     2.4148 H            1    LIG   0.0000
@<TRIPOS>BOND
   1        1        2 1
   2        2        3 ar
   3        3        4 ar
   4        4        5 ar
   5        5        6 1
   6        6        7 ar
   7        6        8 ar
   8        5        9 ar
   9        9       10 1
  10       10       11 1
  11       11       12 ar
  12       12       13 ar
  13       13       14 ar
  14       14       15 1
  15       14       16 ar
  16       16       17 ar
  17       17       11 ar
  18        9       18 ar
  19       18        2 ar
  20        1       19 1
  21        1       20 1
  22        1       21 1
  23        3       22 1
  24        4       23 1
  25       12       24 1
  26       13       25 1
  27       16       26 1
  28       17       27 1

@<TRIPOS>MOLECULE

  27   28
SMALL
USER_CHARGES
@<TRIPOS>ATOM
   1 C1          -1.3038    -0.7819     0.0087 C.3          1    LIG   0.0000
   2 C2          -0.0068     0.0139     0.0004 C.ar         1    LIG   0.0000
   3 C3           1.1961    -0.6854    -0.0162 C.ar         1    LIG   0.0000
   4 C4           2.3918     0.0260    -0.0240 C.ar         1    LIG   0.0000
   5 C5           2.3735     1.4167    -0.0145 C.ar         1    LIG   0.0000
   6 N6           3.5801     2.1272    -0.0211 N.2          1    LIG   1.0000
   7 O7           3.5698     3.3371    -0.0129 O.co2        1    LIG   0.0000
   8 O8           4.6417     1.5263    -0.0351 O.co2        1    LIG  -1.0000
   9 C9           1.1484     2.0758     0.0017 C.ar         1    LIG   0.0000
  10 O10          1.1492     3.4285     0.0113 O.3          1    LIG   0.0000
  11 C11          0.7448     4.0016     1.1643 C.ar         1    LIG   0.0000
  12 C12          1.4733     5.0652     1.6882 C.ar         1    LIG   0.0000
  13 C13          1.0550     5.6540     2.8770 C.ar         1    LIG   0.0000
  14 C14         -0.0793     5.1792     3.5266 C.ar         1    LIG   0.0000
  15 F15         -0.4796     5.7430     4.6627 F            1    LIG   0.0000
  16 C16         -0.8070     4.1159     3.0031 C.ar         1    LIG   0.0000
  17 C17         -0.3887     3.5263     1.8151 C.ar         1    LIG   0.0000
  18 N18          0.0107     1.3587     0.0085 N.ar         1    LIG   0.0000
  19 H           -1.0949    -1.7599     0.0006 H            1    LIG   0.0000
  20 H           -1.8261    -0.5595     0.8319 H            1    LIG   0.0000
  21 H           -1.8427    -0.5494    -0.8009 H            1    LIG   0.0000
  22 H            1.2011    -1.6854    -0.0225 H            1    LIG   0.0000
  23 H            3.2642    -0.4625    -0.0364 H            1    LIG   0.0000
  24 H            2.2877     5.4022     1.2157 H            1    LIG   0.0000
  25 H            1.5699     6.4186     3.2645 H            1    LIG   0.0000
  26 H           -1.6216     3.7792     3.4755 H            1    LIG   0.0000
  27 H           -0.9029     2.7606     1.4288 H            1    LIG   0.0000
@<TRIPOS>BOND
   1        1        2 1
   2        2        3 ar
   3        3        4 ar
   4        4        5 ar
   5        5        6 1
   6        6        7 ar
   7        6        8 ar
   8        5        9 ar
   9        9       10 1
  10       10       11 1
  11       11       12 ar
  12       12       13 ar
  13       13       14 ar
  14       14       15 1
  15       14       16 ar
  16       16       17 ar
  17       17       11 ar
  18        9       18 ar
  19       18        2 ar
  20        1       19 1
  21        1       20 1
  22        1       21 1
  23        3       22 1
  24        4       23 1
  25       12       24 1
  26       13       25 1
  27       16       26 1
  28       17       27 1

@<TRIPOS>MOLECULE

  27   28
SMALL
USER_CHARGES
@<TRIPOS>ATOM
   1 C1          -1.3038    -0.7819     0.0087 C.3          1    LIG   0.0000
   2 C2          -0.0068     0.0139     0.0004 C.ar         1    LIG   0.0000
   3 C3           1.1961    -0.6854    -0.0162 C.ar         1    LIG   0.0000
   4 C4           2.3918     0.0260    -0.0240 C.ar         1    LIG   0.0000
   5 C5           2.3735     1.4167    -0.0145 C.ar         1    LIG   0.0000
   6 N6           3.5801     2.1272    -0.0211 N.2          1    LIG   1.0000
   7 O7           4.1113     2.4271     1.0239 O.co2        1    LIG   0.0000
   8 O8           4.0957     2.4438    -1.0805 O.co2        1    LIG  -1.0000
   9 C9           1.1484     2.0758     0.0017 C.ar         1    LIG   0.0000
  10 O10          1.1492     3.4285     0.0113 O.3          1    LIG   0.0000
  11 C11          0.5514     4.0023     1.0766 C.ar         1    LIG   0.0000
  12 C12          1.3071     4.2871     2.2098 C.ar         1    LIG   0.0000
  13 C13          0.6888     4.8780     3.3068 C.ar         1    LIG   0.0000
  14 C14         -0.6685     5.1779     3.2621 C.ar         1    LIG   0.0000
  15 F15         -1.2591     5.7438     4.3107 F            1    LIG   0.0000
  16 C16         -1.4237     4.8928     2.1295 C.ar         1    LIG   0.0000
  17 C17         -0.8062     4.3011     1.0329 C.ar         1    LIG   0.0000
  18 N18          0.0107     1.3587     0.0085 N.ar         1    LIG   0.0000
  19 H           -1.0949    -1.7599     0.0006 H            1    LIG   0.0000
  20 H           -1.8261    -0.5595     0.8319 H            1    LIG   0.0000
  21 H           -1.8427    -0.5494    -0.8009 H            1    LIG   0.0000
  22 H            1.2011    -1.6854    -0.0225 H            1    LIG   0.0000
  23 H            3.2642    -0.4625    -0.0364 H            1    LIG   0.0000
  24 H            2.2828     4.0695     2.2353 H            1    LIG   0.0000
  25 H            1.2203     5.0872     4.1277 H            1    LIG   0.0000
  26 H           -2.3993     5.1107     2.1041 H            1    LIG   0.0000
  27 H           -1.3383     4.0905     0.2128 H            1    LIG   0.0000
@<TRIPOS>BOND
   1        1        2 1
   2        2        3 ar
   3        3        4 ar
   4        4        5 ar
   5        5        6 1
   6        6        7 ar
   7        6        8 ar
   8        5        9 ar
   9        9       10 1
  10       10       11 1
  11       11       12 ar
  12       12       13 ar
  13       13       14 ar
  14       14       15 1
  15       14       16 ar
  16       16       17 ar
  17       17       11 ar
  18        9       18 ar
  19       18        2 ar
  20        1       19 1
  21        1       20 1
  22        1       21 1
  23        3       22 1
  24        4       23 1
  25       12       24 1
  26       13       25 1
  27       16       26 1
  28       17       27 1

@<TRIPOS>MOLECULE

  27   28
SMALL
USER_CHARGES
@<TRIPOS>ATOM
   1 C1          -1.3038    -0.7819     0.0087 C.3          1    LIG   0.0000
   2 C2          -0.0068     0.0139     0.0004 C.ar         1    LIG   0.0000
   3 C3           1.1961    -0.6854    -0.0162 C.ar         1    LIG   0.0000
   4 C4           2.3918     0.0260    -0.0240 C.ar         1    LIG   0.0000
   5 C5           2.3735     1.4167    -0.0145 C.ar         1    LIG   0.0000
   6 N6           3.5801     2.1272    -0.0211 N.2          1    LIG   1.0000
   7 O7           3.5698     3.3371    -0.0129 O.co2        1    LIG   0.0000
   8 O8           4.6417     1.5263    -0.0351 O.co2        1    LIG  -1.0000
   9 C9           1.1484     2.0758     0.0017 C.ar         1    LIG   0.0000
  10 O10          1.1492     3.4285     0.0113 O.3          1    LIG   0.0000
  11 C11         -0.0687     4.0101     0.0281 C.ar         1    LIG   0.0000
  12 C12         -0.3222     5.0838    -0.8199 C.ar         1    LIG   0.0000
  13 C13         -1.5778     5.6820    -0.8004 C.ar         1    LIG   0.0000
  14 C14         -2.5620     5.2053     0.0588 C.ar         1    LIG   0.0000
  15 F15         -3.7627     5.7768     0.0764 F            1    LIG   0.0000
  16 C16         -2.3083     4.1323     0.9066 C.ar         1    LIG   0.0000
  17 C17         -1.0527     3.5345     0.8881 C.ar         1    LIG   0.0000
  18 N18          0.0107     1.3587     0.0085 N.ar         1    LIG   0.0000
  19 H           -1.0949    -1.7599     0.0006 H            1    LIG   0.0000
  20 H           -1.8261    -0.5595     0.8319 H            1    LIG   0.0000
  21 H           -1.8427    -0.5494    -0.8009 H            1    LIG   0.0000
  22 H            1.2011    -1.6854    -0.0225 H            1    LIG   0.0000
  23 H            3.2642    -0.4625    -0.0364 H            1    LIG   0.0000
  24 H            0.3897     5.4214    -1.4357 H            1    LIG   0.0000
  25 H           -1.7729     6.4549    -1.4042 H            1    LIG   0.0000
  26 H           -3.0203     3.7946     1.5222 H            1    LIG   0.0000
  27 H           -0.8575     2.7627     1.4933 H            1    LIG   0.0000
@<TRIPOS>BOND
   1        1        2 1
   2        2        3 ar
   3        3        4 ar
   4        4        5 ar
   5        5        6 1
   6        6        7 ar
   7        6        8 ar
   8        5        9 ar
   9        9       10 1
  10       10       11 1
  11       11       12 ar
  12       12       13 ar
  13       13       14 ar
  14       14       15 1
  15       14       16 ar
  16       16       17 ar
  17       17       11 ar
  18        9       18 ar
  19       18        2 ar
  20        1       19 1
  21        1       20 1
  22        1       21 1
  23        3       22 1
  24        4       23 1
  25       12       24 1
  26       13       25 1
  27       16       26 1
  28       17       27 1

@<TRIPOS>MOLECULE

  27   28
SMALL
USER_CHARGES
@<TRIPOS>ATOM
   1 C1          -1.3038    -0.7819     0.0087 C.3          1    LIG   0.0000
   2 C2          -0.0068     0.0139     0.0004 C.ar         1    LIG   0.0000
   3 C3           1.1961    -0.6854    -0.0162 C.ar         1    LIG   0.0000
   4 C4           2.3918     0.0260    -0.0240 C.ar         1    LIG   0.0000
   5 C5           2.3735     1.4167    -0.0145 C.ar         1    LIG   0.0000
   6 N6           3.5801     2.1272    -0.0211 N.2          1    LIG   1.0000
   7 O7           3.5698     3.3371    -0.0129 O.co2        1    LIG   0.0000
   8 O8           4.6417     1.5263    -0.0351 O.co2        1    LIG  -1.0000
   9 C9           1.1484     2.0758     0.0017 C.ar         1    LIG   0.0000
  10 O10          1.1492     3.4285     0.0113 O.3          1    LIG   0.0000
  11 C11         -0.0687     4.0101     0.0281 C.ar         1    LIG   0.0000
  12 C12         -0.3043     5.0717     0.8962 C.ar         1    LIG   0.0000
  13 C13         -1.5603     5.6692     0.9122 C.ar         1    LIG   0.0000
  14 C14         -2.5621     5.2050     0.0666 C.ar         1    LIG   0.0000
  15 F15         -3.7625     5.7771     0.0814 F            1    LIG   0.0000
  16 C16         -2.3265     4.1435    -0.8007 C.ar         1    LIG   0.0000
  17 C17         -1.0712     3.5452    -0.8164 C.ar         1    LIG   0.0000
  18 N18          0.0107     1.3587     0.0085 N.ar         1    LIG   0.0000
  19 H           -1.0949    -1.7599     0.0006 H            1    LIG   0.0000
  20 H           -1.8261    -0.5595     0.8319 H            1    LIG   0.0000
  21 H           -1.8427    -0.5494    -0.8009 H            1    LIG   0.0000
  22 H            1.2011    -1.6854    -0.0225 H            1    LIG   0.0000
  23 H            3.2642    -0.4625    -0.0364 H            1    LIG   0.0000
  24 H            0.4206     5.4012     1.5012 H            1    LIG   0.0000
  25 H           -1.7430     6.4326     1.5318 H            1    LIG   0.0000
  26 H           -3.0513     3.8144    -1.4059 H            1    LIG   0.0000
  27 H           -0.8893     2.7808    -1.4349 H            1    LIG   0.0000
@<TRIPOS>BOND
   1        1        2 1
   2        2        3 ar
   3        3        4 ar
   4        4        5 ar
   5        5        6 1
   6        6        7 ar
   7        6        8 ar
   8        5        9 ar
   9        9       10 1
  10       10       11 1
  11       11       12 ar
  12       12       13 ar
  13       13       14 ar
  14       14       15 1
  15       14       16 ar
  16       16       17 ar
  17       17       11 ar
  18        9       18 ar
  19       18        2 ar
  20        1       19 1
  21        1       20 1
  22        1       21 1
  23        3       22 1
  24        4       23 1
  25       12       24 1
  26       13       25 1
  27       16       26 1
  28       17       27 1

@<TRIPOS>MOLECULE

  27   28
SMALL
USER_CHARGES
@<TRIPOS>ATOM
   1 C1          -1.3038    -0.7819     0.0087 C.3          1    LIG   0.0000
   2 C2          -0.0068     0.0139     0.0004 C.ar         1    LIG   0.0000
   3 C3           1.1961    -0.6854    -0.0162 C.ar         1    LIG   0.0000
   4 C4           2.3918     0.0260    -0.0240 C.ar         1    LIG   0.0000
   5 C5           2.3735     1.4167    -0.0145 C.ar         1    LIG   0.0000
   6 N6           3.5801     2.1272    -0.0211 N.2          1    LIG   1.0000
   7 O7           4.1113     2.4271     1.0239 O.co2        1    LIG   0.0000
   8 O8           4.0957     2.4438    -1.0805 O.co2        1    LIG  -1.0000
   9 C9           1.1484     2.0758     0.0017 C.ar         1    LIG   0.0000
  10 O10          1.1492     3.4285     0.0113 O.3          1    LIG   0.0000
  11 C11         -0.0687     4.0101     0.0281 C.ar         1    LIG   0.0000
  12 C12         -0.6704     4.2949     1.2500 C.ar         1    LIG   0.0000
  13 C13         -1.9257     4.8938     1.2649 C.ar         1    LIG   0.0000
  14 C14         -2.5637     5.2014     0.0681 C.ar         1    LIG   0.0000
  15 F15         -3.7635     5.7749     0.0826 F            1    LIG   0.0000
  16 C16         -1.9623     4.9162    -1.1531 C.ar         1    LIG   0.0000
  17 C17         -0.7077     4.3166    -1.1686 C.ar         1    LIG   0.0000
  18 N18          0.0107     1.3587     0.0085 N.ar         1    LIG   0.0000
  19 H           -1.0949    -1.7599     0.0006 H            1    LIG   0.0000
  20 H           -1.8261    -0.5595     0.8319 H            1    LIG   0.0000
  21 H           -1.8427    -0.5494    -0.8009 H            1    LIG   0.0000
  22 H            1.2011    -1.6854    -0.0225 H            1    LIG   0.0000
  23 H            3.2642    -0.4625    -0.0364 H            1    LIG   0.0000
  24 H           -0.2059     4.0718     2.1070 H            1    LIG   0.0000
  25 H           -2.3695     5.1032     2.1363 H            1    LIG   0.0000
  26 H           -2.4267     5.1397    -2.0101 H            1    LIG   0.0000
  27 H           -0.2649     4.1058    -2.0401 H            1    LIG   0.0000
@<TRIPOS>BOND
   1        1        2 1
   2        2        3 ar
   3        3        4 ar
   4        4        5 ar
   5        5        6 1
   6        6        7 ar
   7        6        8 ar
   8        5        9 ar
   9        9       10 1
  10       10       11 1
  11       11       12 ar
  12       12       13 ar
  13       13       14 ar
  14       14       15 1
  15       14       16 ar
  16       16       17 ar
  17       17       11 ar
  18        9       18 ar
  19       18        2 ar
  20        1       19 1
  21        1       20 1
  22        1       21 1
  23        3       22 1
  24        4       23 1
  25       12       24 1
  26       13       25 1
  27       16       26 1
  28       17       27 1

@<TRIPOS>MOLECULE

  27   28
SMALL
USER_CHARGES
@<TRIPOS>ATOM
   1 C1          -1.3038    -0.7819     0.0087 C.3          1    LIG   0.0000
   2 C2          -0.0068     0.0139     0.0004 C.ar         1    LIG   0.0000
   3 C3           1.1961    -0.6854    -0.0162 C.ar         1    LIG   0.0000
   4 C4           2.3918     0.0260    -0.0240 C.ar         1    LIG   0.0000
   5 C5           2.3735     1.4167    -0.0145 C.ar         1    LIG   0.0000
   6 N6           3.5801     2.1272    -0.0211 N.2          1    LIG   1.0000
   7 O7           4.1113     2.4271     1.0239 O.co2        1    LIG   0.0000
   8 O8           4.0957     2.4438    -1.0805 O.co2        1    LIG  -1.0000
   9 C9           1.1484     2.0758     0.0017 C.ar         1    LIG   0.0000
  10 O10          1.1492     3.4285     0.0113 O.3          1    LIG   0.0000
  11 C11          0.1009     4.0057     0.6354 C.ar         1    LIG   0.0000
  12 C12          0.0223     5.3938     0.6921 C.ar         1    LIG   0.0000
  13 C13         -1.0586     5.9865     1.3364 C.ar         1    LIG   0.0000
  14 C14         -2.0446     5.1932     1.9132 C.ar         1    LIG   0.0000
  15 F15         -3.0785     5.7602     2.5282 F            1    LIG   0.0000
  16 C16         -1.9657     3.8058     1.8568 C.ar         1    LIG   0.0000
  17 C17         -0.8847     3.2128     1.2136 C.ar         1    LIG   0.0000
  18 N18          0.0107     1.3587     0.0085 N.ar         1    LIG   0.0000
  19 H           -1.0949    -1.7599     0.0006 H            1    LIG   0.0000
  20 H           -1.8261    -0.5595     0.8319 H            1    LIG   0.0000
  21 H           -1.8427    -0.5494    -0.8009 H            1    LIG   0.0000
  22 H            1.2011    -1.6854    -0.0225 H            1    LIG   0.0000
  23 H            3.2642    -0.4625    -0.0364 H            1    LIG   0.0000
  24 H            0.7343     5.9585     0.2747 H            1    LIG   0.0000
  25 H           -1.1268     6.9830     1.3848 H            1    LIG   0.0000
  26 H           -2.6779     3.2413     2.2739 H            1    LIG   0.0000
  27 H           -0.8160     2.2163     1.1668 H            1    LIG   0.0000
@<TRIPOS>BOND
   1        1        2 1
   2        2        3 ar
   3        3        4 ar
   4        4        5 ar
   5        5        6 1
   6        6        7 ar
   7        6        8 ar
   8        5        9 ar
   9        9       10 1
  10       10       11 1
  11       11       12 ar
  12       12       13 ar
  13       13       14 ar
  14       14       15 1
  15       14       16 ar
  16       16       17 ar
  17       17       11 ar
  18        9       18 ar
  19       18        2 ar
  20        1       19 1
  21        1       20 1
  22        1       21 1
  23        3       22 1
  24        4       23 1
  25       12       24 1
  26       13       25 1
  27       16       26 1
  28       17       27 1

@<TRIPOS>MOLECULE

  27   28
SMALL
USER_CHARGES
@<TRIPOS>ATOM
   1 C1          -1.3038    -0.7819     0.0087 C.3          1    LIG   0.0000
   2 C2          -0.0068     0.0139     0.0004 C.ar         1    LIG   0.0000
   3 C3           1.1961    -0.6854    -0.0162 C.ar         1    LIG   0.0000
   4 C4           2.3918     0.0260    -0.0240 C.ar         1    LIG   0.0000
   5 C5           2.3735     1.4167    -0.0145 C.ar         1    LIG   0.0000
   6 N6           3.5801     2.1272    -0.0211 N.2          1    LIG   1.0000
   7 O7           4.1113     2.4271     1.0239 O.co2        1    LIG   0.0000
   8 O8           4.0957     2.4438    -1.0805 O.co2        1    LIG  -1.0000
   9 C9           1.1484     2.0758     0.0017 C.ar         1    LIG   0.0000
  10 O10          1.1492     3.4285     0.0113 O.3          1    LIG   0.0000
  11 C11          0.0882     4.0143    -0.5827 C.ar         1    LIG   0.0000
  12 C12          0.2964     5.0879    -1.4430 C.ar         1    LIG   0.0000
  13 C13         -0.7986     5.6905    -2.0536 C.ar         1    LIG   0.0000
  14 C14         -2.0822     5.2182    -1.8019 C.ar         1    LIG   0.0000
  15 F15         -3.1288     5.7938    -2.3866 F            1    LIG   0.0000
  16 C16         -2.2902     4.1453    -0.9416 C.ar         1    LIG   0.0000
  17 C17         -1.1958     3.5432    -0.3302 C.ar         1    LIG   0.0000
  18 N18          0.0107     1.3587     0.0085 N.ar         1    LIG   0.0000
  19 H           -1.0949    -1.7599     0.0006 H            1    LIG   0.0000
  20 H           -1.8261    -0.5595     0.8319 H            1    LIG   0.0000
  21 H           -1.8427    -0.5494    -0.8009 H            1    LIG   0.0000
  22 H            1.2011    -1.6854    -0.0225 H            1    LIG   0.0000
  23 H            3.2642    -0.4625    -0.0364 H            1    LIG   0.0000
  24 H            1.2221     5.4222    -1.6203 H            1    LIG   0.0000
  25 H           -0.6628     6.4633    -2.6735 H            1    LIG   0.0000
  26 H           -3.2158     3.8109    -0.7647 H            1    LIG   0.0000
  27 H           -1.3321     2.7714     0.2910 H            1    LIG   0.0000
@<TRIPOS>BOND
   1        1        2 1
   2        2        3 ar
   3        3        4 ar
   4        4        5 ar
   5        5        6 1
   6        6        7 ar
   7        6        8 ar
   8        5        9 ar
   9        9       10 1
  10       10       11 1
  11       11       12 ar
  12       12       13 ar
  13       13       14 ar
  14       14       15 1
  15       14       16 ar
  16       16       17 ar
  17       17       11 ar
  18        9       18 ar
  19       18        2 ar
  20        1       19 1
  21        1       20 1
  22        1       21 1
  23        3       22 1
  24        4       23 1
  25       12       24 1
  26       13       25 1
  27       16       26 1
  28       17       27 1

@<TRIPOS>MOLECULE

  27   28
SMALL
USER_CHARGES
@<TRIPOS>ATOM
   1 C1          -1.3038    -0.7819     0.0087 C.3          1    LIG   0.0000
   2 C2          -0.0068     0.0139     0.0004 C.ar         1    LIG   0.0000
   3 C3           1.1961    -0.6854    -0.0162 C.ar         1    LIG   0.0000
   4 C4           2.3918     0.0260    -0.0240 C.ar         1    LIG   0.0000
   5 C5           2.3735     1.4167    -0.0145 C.ar         1    LIG   0.0000
   6 N6           3.5801     2.1272    -0.0211 N.2          1    LIG   1.0000
   7 O7           3.5698     3.3371    -0.0129 O.co2        1    LIG   0.0000
   8 O8           4.6417     1.5263    -0.0351 O.co2        1    LIG  -1.0000
   9 C9           1.1484     2.0758     0.0017 C.ar         1    LIG   0.0000
  10 O10          1.1492     3.4285     0.0113 O.3          1    LIG   0.0000
  11 C11          0.0882     4.0143    -0.5827 C.ar         1    LIG   0.0000
  12 C12         -1.0428     4.3027     0.1749 C.ar         1    LIG   0.0000
  13 C13         -2.1353     4.9059    -0.4394 C.ar         1    LIG   0.0000
  14 C14         -2.0883     5.2143    -1.7948 C.ar         1    LIG   0.0000
  15 F15         -3.1326     5.7920    -2.3816 F            1    LIG   0.0000
  16 C16         -0.9579     4.9255    -2.5518 C.ar         1    LIG   0.0000
  17 C17          0.1342     4.3216    -1.9383 C.ar         1    LIG   0.0000
  18 N18          0.0107     1.3587     0.0085 N.ar         1    LIG   0.0000
  19 H           -1.0949    -1.7599     0.0006 H            1    LIG   0.0000
  20 H           -1.8261    -0.5595     0.8319 H            1    LIG   0.0000
  21 H           -1.8427    -0.5494    -0.8009 H            1    LIG   0.0000
  22 H            1.2011    -1.6854    -0.0225 H            1    LIG   0.0000
  23 H            3.2642    -0.4625    -0.0364 H            1    LIG   0.0000
  24 H           -1.0699     4.0790     1.1492 H            1    LIG   0.0000
  25 H           -2.9545     5.1179     0.0934 H            1    LIG   0.0000
  26 H           -0.9308     5.1496    -3.5260 H            1    LIG   0.0000
  27 H            0.9526     4.1082    -2.4718 H            1    LIG   0.0000
@<TRIPOS>BOND
   1        1        2 1
   2        2        3 ar
   3        3        4 ar
   4        4        5 ar
   5        5        6 1
   6        6        7 ar
   7        6        8 ar
   8        5        9 ar
   9        9       10 1
  10       10       11 1
  11       11       12 ar
  12       12       13 ar
  13       13       14 ar
  14       14       15 1
  15       14       16 ar
  16       16       17 ar
  17       17       11 ar
  18        9       18 ar
  19       18        2 ar
  20        1       19 1
  21        1       20 1
  22        1       21 1
  23        3       22 1
  24        4       23 1
  25       12       24 1
  26       13       25 1
  27       16       26 1
  28       17       27 1

