@<TRIPOS>MOLECULE
*****
 27 28 0 0 0
SMALL
USER_CHARGES

@<TRIPOS>ATOM
      1 C1         -1.3038   -0.7819    0.0087 C.3     1  LIG1        0.0000
      2 C2         -0.0068    0.0139    0.0004 C.3     1  LIG1        0.0000
      3 C3          1.1961   -0.6854   -0.0162 C.3     1  LIG1        0.0000
      4 C4          2.3918    0.0260   -0.0240 C.3     1  LIG1        0.0000
      5 C5          2.3735    1.4167   -0.0145 C.3     1  LIG1        0.0000
      6 N6          3.5801    2.1272   -0.0211 N.pl3   1  LIG1        1.0000
      7 O7          3.5698    3.3371   -0.0129 O.2     1  LIG1        0.0000
      8 O8          4.6417    1.5263   -0.0351 O.2     1  LIG1       -1.0000
      9 C9          1.1484    2.0758    0.0017 C.3     1  LIG1        0.0000
     10 O10         1.1492    3.4285    0.0113 O.2     1  LIG1        0.0000
     11 C11         1.1367    4.0181   -1.2027 C.3     1  LIG1        0.0000
     12 C12         1.1365    5.4072   -1.2851 C.3     1  LIG1        0.0000
     13 C13         1.1231    6.0127   -2.5373 C.3     1  LIG1        0.0000
     14 C14         1.1111    5.2311   -3.6876 C.3     1  LIG1        0.0000
     15 F15         1.0994    5.8103   -4.8846 F       1  LIG1        0.0000
     16 C16         1.1109    3.8427   -3.6050 C.3     1  LIG1        0.0000
     17 C17         1.1233    3.2369   -2.3533 C.3     1  LIG1        0.0000
     18 N18         0.0107    1.3587    0.0085 N.pl3   1  LIG1        0.0000
     19 H          -1.0949   -1.7599    0.0006 H       1  LIG1        0.0000
     20 H          -1.8261   -0.5595    0.8319 H       1  LIG1        0.0000
     21 H          -1.8427   -0.5494   -0.8009 H       1  LIG1        0.0000
     22 H           1.2011   -1.6854   -0.0225 H       1  LIG1        0.0000
     23 H           3.2642   -0.4625   -0.0364 H       1  LIG1        0.0000
     24 H           1.1459    5.9634   -0.4541 H       1  LIG1        0.0000
     25 H           1.1222    7.0100   -2.6104 H       1  LIG1        0.0000
     26 H           1.1019    3.2866   -4.4361 H       1  LIG1        0.0000
     27 H           1.1226    2.2396   -2.2805 H       1  LIG1        0.0000
@<TRIPOS>BOND
     1     1     2    1
     2     2     3   ar
     3     3     4   ar
     4     4     5   ar
     5     5     6    1
     6     6     7   ar
     7     6     8   ar
     8     5     9   ar
     9     9    10    1
    10    10    11    1
    11    11    12   ar
    12    12    13   ar
    13    13    14   ar
    14    14    15    1
    15    14    16   ar
    16    16    17   ar
    17    17    11   ar
    18     9    18   ar
    19    18     2   ar
    20     1    19    1
    21     1    20    1
    22     1    21    1
    23     3    22    1
    24     4    23    1
    25    12    24    1
    26    13    25    1
    27    16    26    1
    28    17    27    1
