@<TRIPOS>MOLECULE

  24   26
SMALL
USER_CHARGES
@<TRIPOS>ATOM
   1 F1          -1.1774     2.0273     0.0241 F            1    LIG   0.0000
   2 C2          -0.0166     1.3785     0.0099 C.ar         1    LIG   0.0000
   3 C3           1.1716     2.1020     0.0048 C.ar         1    LIG   0.0000
   4 C4           2.3823     1.4168    -0.0104 C.ar         1    LIG   0.0000
   5 C5           2.3942     0.0256    -0.0209 C.ar         1    LIG   0.0000
   6 C6           3.6616    -0.6794    -0.0364 C.2          1    LIG   0.0000
   7 C7           3.8446    -1.6660    -0.9706 C.2          1    LIG   0.0000
   8 C8           5.0847    -2.3582    -0.9887 C.2          1    LIG   0.0000
   9 C9           6.0637    -2.0341    -0.0865 C.2          1    LIG   0.0000
  10 N10          5.8636    -1.0444     0.8411 N.pl3        1    LIG   0.0000
  11 C11          6.6478    -0.5282     1.8315 C.2          1    LIG   0.0000
  12 N12          5.9656     0.4195     2.4345 N.2          1    LIG   0.0000
  13 N13          4.7848     0.5164     1.8615 N.2          1    LIG   0.0000
  14 C14          4.6952    -0.3633     0.8886 C.2          1    LIG   0.0000
  15 C15          1.2010    -0.6889    -0.0156 C.ar         1    LIG   0.0000
  16 C16         -0.0147    -0.0124     0.0002 C.ar         1    LIG   0.0000
  17 H            1.1557     3.1018     0.0118 H            1    LIG   0.0000
  18 H            3.2440     1.9242    -0.0137 H            1    LIG   0.0000
  19 H            3.1222    -1.8928    -1.6237 H            1    LIG   0.0000
  20 H            5.2434    -3.0822    -1.6600 H            1    LIG   0.0000
  21 H            6.9345    -2.5253    -0.1047 H            1    LIG   0.0000
  22 H            7.5771    -0.8196     2.0583 H            1    LIG   0.0000
  23 H            1.2168    -1.6887    -0.0233 H            1    LIG   0.0000
  24 H           -0.8764    -0.5198     0.0045 H            1    LIG   0.0000
@<TRIPOS>BOND
   1        1        2 1
   2        2        3 ar
   3        3        4 ar
   4        4        5 ar
   5        5        6 1
   6        6        7 2
   7        7        8 1
   8        8        9 2
   9        9       10 1
  10       10       11 1
  11       11       12 2
  12       12       13 1
  13       13       14 2
  14       14        6 1
  15       14       10 1
  16        5       15 ar
  17       15       16 ar
  18       16        2 ar
  19        3       17 1
  20        4       18 1
  21        7       19 1
  22        8       20 1
  23        9       21 1
  24       11       22 1
  25       15       23 1
  26       16       24 1

@<TRIPOS>MOLECULE

  24   26
SMALL
USER_CHARGES
@<TRIPOS>ATOM
   1 F1          -1.1774     2.0273     0.0241 F            1    LIG   0.0000
   2 C2          -0.0166     1.3785     0.0099 C.ar         1    LIG   0.0000
   3 C3           1.1716     2.1020     0.0048 C.ar         1    LIG   0.0000
   4 C4           2.3823     1.4168    -0.0104 C.ar         1    LIG   0.0000
   5 C5           2.3942     0.0256    -0.0209 C.ar         1    LIG   0.0000
   6 C6           3.6616    -0.6794    -0.0364 C.2          1    LIG   0.0000
   7 C7           4.0195    -1.3470    -1.1791 C.2          1    LIG   0.0000
   8 C8           5.2602    -2.0382    -1.1978 C.2          1    LIG   0.0000
   9 C9           6.0675    -2.0271    -0.0908 C.2          1    LIG   0.0000
  10 N10          5.6939    -1.3540     1.0438 N.pl3        1    LIG   0.0000
  11 C11          6.2903    -1.1803     2.2588 C.2          1    LIG   0.0000
  12 N12          5.4965    -0.4363     2.9960 N.2          1    LIG   0.0000
  13 N13          4.4260    -0.1382     2.2909 N.2          1    LIG   0.0000
  14 C14          4.5193    -0.6843     1.0986 C.2          1    LIG   0.0000
  15 C15          1.2010    -0.6889    -0.0156 C.ar         1    LIG   0.0000
  16 C16         -0.0147    -0.0124     0.0002 C.ar         1    LIG   0.0000
  17 H            1.1557     3.1018     0.0118 H            1    LIG   0.0000
  18 H            3.2440     1.9242    -0.0137 H            1    LIG   0.0000
  19 H            3.4213    -1.3472    -1.9805 H            1    LIG   0.0000
  20 H            5.5445    -2.5331    -2.0190 H            1    LIG   0.0000
  21 H            6.9398    -2.5157    -0.1107 H            1    LIG   0.0000
  22 H            7.1750    -1.5531     2.5388 H            1    LIG   0.0000
  23 H            1.2168    -1.6887    -0.0233 H            1    LIG   0.0000
  24 H           -0.8764    -0.5198     0.0045 H            1    LIG   0.0000
@<TRIPOS>BOND
   1        1        2 1
   2        2        3 ar
   3        3        4 ar
   4        4        5 ar
   5        5        6 1
   6        6        7 2
   7        7        8 1
   8        8        9 2
   9        9       10 1
  10       10       11 1
  11       11       12 2
  12       12       13 1
  13       13       14 2
  14       14        6 1
  15       14       10 1
  16        5       15 ar
  17       15       16 ar
  18       16        2 ar
  19        3       17 1
  20        4       18 1
  21        7       19 1
  22        8       20 1
  23        9       21 1
  24       11       22 1
  25       15       23 1
  26       16       24 1

@<TRIPOS>MOLECULE

  24   26
SMALL
USER_CHARGES
@<TRIPOS>ATOM
   1 F1          -1.1774     2.0273     0.0241 F            1    LIG   0.0000
   2 C2          -0.0166     1.3785     0.0099 C.ar         1    LIG   0.0000
   3 C3           1.1716     2.1020     0.0048 C.ar         1    LIG   0.0000
   4 C4           2.3823     1.4168    -0.0104 C.ar         1    LIG   0.0000
   5 C5           2.3942     0.0256    -0.0209 C.ar         1    LIG   0.0000
   6 C6           3.6616    -0.6794    -0.0364 C.2          1    LIG   0.0000
   7 C7           3.7161    -1.9041    -0.6502 C.2          1    LIG   0.0000
   8 C8           4.9558    -2.5971    -0.6674 C.2          1    LIG   0.0000
   9 C9           6.0608    -2.0395    -0.0796 C.2          1    LIG   0.0000
  10 N10          5.9883    -0.8134     0.5299 N.pl3        1    LIG   0.0000
  11 C11          6.9102    -0.0419     1.1757 C.2          1    LIG   0.0000
  12 N12          6.3099     1.0576     1.5731 N.2          1    LIG   0.0000
  13 N13          5.0483     1.0045     1.2027 N.2          1    LIG   0.0000
  14 C14          4.8245    -0.1238     0.5660 C.2          1    LIG   0.0000
  15 C15          1.2010    -0.6889    -0.0156 C.ar         1    LIG   0.0000
  16 C16         -0.0147    -0.0124     0.0002 C.ar         1    LIG   0.0000
  17 H            1.1557     3.1018     0.0118 H            1    LIG   0.0000
  18 H            3.2440     1.9242    -0.0137 H            1    LIG   0.0000
  19 H            2.9024    -2.3000    -1.0757 H            1    LIG   0.0000
  20 H            5.0222    -3.4921    -1.1086 H            1    LIG   0.0000
  21 H            6.9306    -2.5326    -0.0954 H            1    LIG   0.0000
  22 H            7.8724    -0.2724     1.3208 H            1    LIG   0.0000
  23 H            1.2168    -1.6887    -0.0233 H            1    LIG   0.0000
  24 H           -0.8764    -0.5198     0.0045 H            1    LIG   0.0000
@<TRIPOS>BOND
   1        1        2 1
   2        2        3 ar
   3        3        4 ar
   4        4        5 ar
   5        5        6 1
   6        6        7 2
   7        7        8 1
   8        8        9 2
   9        9       10 1
  10       10       11 1
  11       11       12 2
  12       12       13 1
  13       13       14 2
  14       14        6 1
  15       14       10 1
  16        5       15 ar
  17       15       16 ar
  18       16        2 ar
  19        3       17 1
  20        4       18 1
  21        7       19 1
  22        8       20 1
  23        9       21 1
  24       11       22 1
  25       15       23 1
  26       16       24 1

@<TRIPOS>MOLECULE

  24   26
SMALL
USER_CHARGES
@<TRIPOS>ATOM
   1 F1          -1.1774     2.0273     0.0241 F            1    LIG   0.0000
   2 C2          -0.0166     1.3785     0.0099 C.ar         1    LIG   0.0000
   3 C3           1.1716     2.1020     0.0048 C.ar         1    LIG   0.0000
   4 C4           2.3823     1.4168    -0.0104 C.ar         1    LIG   0.0000
   5 C5           2.3942     0.0256    -0.0209 C.ar         1    LIG   0.0000
   6 C6           3.6616    -0.6794    -0.0364 C.2          1    LIG   0.0000
   7 C7           3.8591    -1.6806     0.8792 C.2          1    LIG   0.0000
   8 C8           5.0991    -2.3732     0.8667 C.2          1    LIG   0.0000
   9 C9           6.0635    -2.0353    -0.0461 C.2          1    LIG   0.0000
  10 N10          5.8490    -1.0312    -0.9549 N.pl3        1    LIG   0.0000
  11 C11          6.6161    -0.5020    -1.9517 C.2          1    LIG   0.0000
  12 N12          5.9227     0.4517    -2.5322 N.2          1    LIG   0.0000
  13 N13          4.7522     0.5412    -1.9374 N.2          1    LIG   0.0000
  14 C14          4.6802    -0.3494    -0.9730 C.2          1    LIG   0.0000
  15 C15          1.2010    -0.6889    -0.0156 C.ar         1    LIG   0.0000
  16 C16         -0.0147    -0.0124     0.0002 C.ar         1    LIG   0.0000
  17 H            1.1557     3.1018     0.0118 H            1    LIG   0.0000
  18 H            3.2440     1.9242    -0.0137 H            1    LIG   0.0000
  19 H            3.1470    -1.9177     1.5401 H            1    LIG   0.0000
  20 H            5.2683    -3.1075     1.5241 H            1    LIG   0.0000
  21 H            6.9343    -2.5270    -0.0496 H            1    LIG   0.0000
  22 H            7.5420    -0.7891    -2.1971 H            1    LIG   0.0000
  23 H            1.2168    -1.6887    -0.0233 H            1    LIG   0.0000
  24 H           -0.8764    -0.5198     0.0045 H            1    LIG   0.0000
@<TRIPOS>BOND
   1        1        2 1
   2        2        3 ar
   3        3        4 ar
   4        4        5 ar
   5        5        6 1
   6        6        7 2
   7        7        8 1
   8        8        9 2
   9        9       10 1
  10       10       11 1
  11       11       12 2
  12       12       13 1
  13       13       14 2
  14       14        6 1
  15       14       10 1
  16        5       15 ar
  17       15       16 ar
  18       16        2 ar
  19        3       17 1
  20        4       18 1
  21        7       19 1
  22        8       20 1
  23        9       21 1
  24       11       22 1
  25       15       23 1
  26       16       24 1

@<TRIPOS>MOLECULE

  24   26
SMALL
USER_CHARGES
@<TRIPOS>ATOM
   1 F1          -1.1774     2.0273     0.0241 F            1    LIG   0.0000
   2 C2          -0.0166     1.3785     0.0099 C.ar         1    LIG   0.0000
   3 C3           1.1716     2.1020     0.0048 C.ar         1    LIG   0.0000
   4 C4           2.3823     1.4168    -0.0104 C.ar         1    LIG   0.0000
   5 C5           2.3942     0.0256    -0.0209 C.ar         1    LIG   0.0000
   6 C6           3.6616    -0.6794    -0.0364 C.2          1    LIG   0.0000
   7 C7           3.7256    -1.9136     0.5571 C.2          1    LIG   0.0000
   8 C8           4.9652    -2.6069     0.5436 C.2          1    LIG   0.0000
   9 C9           6.0606    -2.0403    -0.0533 C.2          1    LIG   0.0000
  10 N10          5.9787    -0.8048    -0.6423 N.pl3        1    LIG   0.0000
  11 C11          6.8896    -0.0248    -1.2937 C.2          1    LIG   0.0000
  12 N12          6.2820     1.0786    -1.6686 N.2          1    LIG   0.0000
  13 N13          5.0270     1.0207    -1.2769 N.2          1    LIG   0.0000
  14 C14          4.8147    -0.1147    -0.6491 C.2          1    LIG   0.0000
  15 C15          1.2010    -0.6889    -0.0156 C.ar         1    LIG   0.0000
  16 C16         -0.0147    -0.0124     0.0002 C.ar         1    LIG   0.0000
  17 H            1.1557     3.1018     0.0118 H            1    LIG   0.0000
  18 H            3.2440     1.9242    -0.0137 H            1    LIG   0.0000
  19 H            2.9186    -2.3162     0.9893 H            1    LIG   0.0000
  20 H            5.0384    -3.5085     0.9697 H            1    LIG   0.0000
  21 H            6.9304    -2.5337    -0.0594 H            1    LIG   0.0000
  22 H            7.8495    -0.2525    -1.4568 H            1    LIG   0.0000
  23 H            1.2168    -1.6887    -0.0233 H            1    LIG   0.0000
  24 H           -0.8764    -0.5198     0.0045 H            1    LIG   0.0000
@<TRIPOS>BOND
   1        1        2 1
   2        2        3 ar
   3        3        4 ar
   4        4        5 ar
   5        5        6 1
   6        6        7 2
   7        7        8 1
   8        8        9 2
   9        9       10 1
  10       10       11 1
  11       11       12 2
  12       12       13 1
  13       13       14 2
  14       14        6 1
  15       14       10 1
  16        5       15 ar
  17       15       16 ar
  18       16        2 ar
  19        3       17 1
  20        4       18 1
  21        7       19 1
  22        8       20 1
  23        9       21 1
  24       11       22 1
  25       15       23 1
  26       16       24 1

@<TRIPOS>MOLECULE

  24   26
SMALL
USER_CHARGES
@<TRIPOS>ATOM
   1 F1          -1.1774     2.0273     0.0241 F            1    LIG   0.0000
   2 C2          -0.0166     1.3785     0.0099 C.ar         1    LIG   0.0000
   3 C3           1.1716     2.1020     0.0048 C.ar         1    LIG   0.0000
   4 C4           2.3823     1.4168    -0.0104 C.ar         1    LIG   0.0000
   5 C5           2.3942     0.0256    -0.0209 C.ar         1    LIG   0.0000
   6 C6           3.6616    -0.6794    -0.0364 C.2          1    LIG   0.0000
   7 C7           4.0373    -1.3649     1.0900 C.2          1    LIG   0.0000
   8 C8           5.2778    -2.0566     1.0781 C.2          1    LIG   0.0000
   9 C9           6.0673    -2.0285    -0.0413 C.2          1    LIG   0.0000
  10 N10          5.6759    -1.3379    -1.1593 N.pl3        1    LIG   0.0000
  11 C11          6.2515    -1.1481    -2.3820 C.2          1    LIG   0.0000
  12 N12          5.4439    -0.3968    -3.0965 N.2          1    LIG   0.0000
  13 N13          4.3860    -0.1077    -2.3692 N.2          1    LIG   0.0000
  14 C14          4.5008    -0.6672    -1.1850 C.2          1    LIG   0.0000
  15 C15          1.2010    -0.6889    -0.0156 C.ar         1    LIG   0.0000
  16 C16         -0.0147    -0.0124     0.0002 C.ar         1    LIG   0.0000
  17 H            1.1557     3.1018     0.0118 H            1    LIG   0.0000
  18 H            3.2440     1.9242    -0.0137 H            1    LIG   0.0000
  19 H            3.4518    -1.3777     1.9006 H            1    LIG   0.0000
  20 H            5.5750    -2.5640     1.8869 H            1    LIG   0.0000
  21 H            6.9395    -2.5177    -0.0431 H            1    LIG   0.0000
  22 H            7.1319    -1.5158    -2.6813 H            1    LIG   0.0000
  23 H            1.2168    -1.6887    -0.0233 H            1    LIG   0.0000
  24 H           -0.8764    -0.5198     0.0045 H            1    LIG   0.0000
@<TRIPOS>BOND
   1        1        2 1
   2        2        3 ar
   3        3        4 ar
   4        4        5 ar
   5        5        6 1
   6        6        7 2
   7        7        8 1
   8        8        9 2
   9        9       10 1
  10       10       11 1
  11       11       12 2
  12       12       13 1
  13       13       14 2
  14       14        6 1
  15       14       10 1
  16        5       15 ar
  17       15       16 ar
  18       16        2 ar
  19        3       17 1
  20        4       18 1
  21        7       19 1
  22        8       20 1
  23        9       21 1
  24       11       22 1
  25       15       23 1
  26       16       24 1

