@<TRIPOS>MOLECULE
*****
 24 26 0 0 0
SMALL
USER_CHARGES

@<TRIPOS>ATOM
      1 F1         -1.1774    2.0273    0.0241 F       1  LIG1        0.0000
      2 C2         -0.0166    1.3785    0.0099 C.ar    1  LIG1        0.0000
      3 C3          1.1716    2.1020    0.0048 C.ar    1  LIG1        0.0000
      4 C4          2.3823    1.4168   -0.0104 C.ar    1  LIG1        0.0000
      5 C5          2.3942    0.0256   -0.0209 C.ar    1  LIG1        0.0000
      6 C6          3.6616   -0.6794   -0.0364 C.2     1  LIG1        0.0000
      7 C7          3.7161   -1.9041   -0.6502 C.2     1  LIG1        0.0000
      8 C8          4.9558   -2.5971   -0.6674 C.2     1  LIG1        0.0000
      9 C9          6.0608   -2.0395   -0.0796 C.2     1  LIG1        0.0000
     10 N10         5.9883   -0.8134    0.5299 N.pl3   1  LIG1        0.0000
     11 C11         6.9102   -0.0419    1.1757 C.2     1  LIG1        0.0000
     12 N12         6.3099    1.0576    1.5731 N.2     1  LIG1        0.0000
     13 N13         5.0483    1.0045    1.2027 N.2     1  LIG1        0.0000
     14 C14         4.8245   -0.1238    0.5660 C.2     1  LIG1        0.0000
     15 C15         1.2010   -0.6889   -0.0156 C.ar    1  LIG1        0.0000
     16 C16        -0.0147   -0.0124    0.0002 C.ar    1  LIG1        0.0000
     17 H           1.1557    3.1018    0.0118 H       1  LIG1        0.0000
     18 H           3.2440    1.9242   -0.0137 H       1  LIG1        0.0000
     19 H           2.9024   -2.3000   -1.0757 H       1  LIG1        0.0000
     20 H           5.0222   -3.4921   -1.1086 H       1  LIG1        0.0000
     21 H           6.9306   -2.5326   -0.0954 H       1  LIG1        0.0000
     22 H           7.8724   -0.2724    1.3208 H       1  LIG1        0.0000
     23 H           1.2168   -1.6887   -0.0233 H       1  LIG1        0.0000
     24 H          -0.8764   -0.5198    0.0045 H       1  LIG1        0.0000
@<TRIPOS>BOND
     1     1     2    1
     2     2     3   ar
     3     3     4   ar
     4     4     5   ar
     5     5     6    1
     6     6     7    2
     7     7     8    1
     8     8     9    2
     9     9    10    1
    10    10    11    1
    11    11    12    2
    12    12    13    1
    13    13    14    2
    14    14     6    1
    15    14    10    1
    16     5    15   ar
    17    15    16   ar
    18    16     2   ar
    19     3    17    1
    20     4    18    1
    21     7    19    1
    22     8    20    1
    23     9    21    1
    24    11    22    1
    25    15    23    1
    26    16    24    1
