@<TRIPOS>MOLECULE
*****
 24 26 0 0 0
SMALL
USER_CHARGES

@<TRIPOS>ATOM
      1 F1         -1.1774    2.0273    0.0241 F       1  LIG1        0.0000
      2 C2         -0.0166    1.3785    0.0099 C.ar    1  LIG1        0.0000
      3 C3          1.1716    2.1020    0.0048 C.ar    1  LIG1        0.0000
      4 C4          2.3823    1.4168   -0.0104 C.ar    1  LIG1        0.0000
      5 C5          2.3942    0.0256   -0.0209 C.ar    1  LIG1        0.0000
      6 C6          3.6616   -0.6794   -0.0364 C.2     1  LIG1        0.0000
      7 C7          3.7256   -1.9136    0.5571 C.2     1  LIG1        0.0000
      8 C8          4.9652   -2.6069    0.5436 C.2     1  LIG1        0.0000
      9 C9          6.0606   -2.0403   -0.0533 C.2     1  LIG1        0.0000
     10 N10         5.9787   -0.8048   -0.6423 N.pl3   1  LIG1        0.0000
     11 C11         6.8896   -0.0248   -1.2937 C.2     1  LIG1        0.0000
     12 N12         6.2820    1.0786   -1.6686 N.2     1  LIG1        0.0000
     13 N13         5.0270    1.0207   -1.2769 N.2     1  LIG1        0.0000
     14 C14         4.8147   -0.1147   -0.6491 C.2     1  LIG1        0.0000
     15 C15         1.2010   -0.6889   -0.0156 C.ar    1  LIG1        0.0000
     16 C16        -0.0147   -0.0124    0.0002 C.ar    1  LIG1        0.0000
     17 H           1.1557    3.1018    0.0118 H       1  LIG1        0.0000
     18 H           3.2440    1.9242   -0.0137 H       1  LIG1        0.0000
     19 H           2.9186   -2.3162    0.9893 H       1  LIG1        0.0000
     20 H           5.0384   -3.5085    0.9697 H       1  LIG1        0.0000
     21 H           6.9304   -2.5337   -0.0594 H       1  LIG1        0.0000
     22 H           7.8495   -0.2525   -1.4568 H       1  LIG1        0.0000
     23 H           1.2168   -1.6887   -0.0233 H       1  LIG1        0.0000
     24 H          -0.8764   -0.5198    0.0045 H       1  LIG1        0.0000
@<TRIPOS>BOND
     1     1     2    1
     2     2     3   ar
     3     3     4   ar
     4     4     5   ar
     5     5     6    1
     6     6     7    2
     7     7     8    1
     8     8     9    2
     9     9    10    1
    10    10    11    1
    11    11    12    2
    12    12    13    1
    13    13    14    2
    14    14     6    1
    15    14    10    1
    16     5    15   ar
    17    15    16   ar
    18    16     2   ar
    19     3    17    1
    20     4    18    1
    21     7    19    1
    22     8    20    1
    23     9    21    1
    24    11    22    1
    25    15    23    1
    26    16    24    1
