@<TRIPOS>MOLECULE

  63   66
SMALL
USER_CHARGES
@<TRIPOS>ATOM
   1 C1           6.2231     3.6900     5.5598 C.3          1    LIG   0.0000
   2 C2           6.4271     2.9221     4.2591 C.ar         1    LIG   0.0000
   3 C3           7.7222     2.6643     3.8216 C.ar         1    LIG   0.0000
   4 C4           7.9298     1.9641     2.6376 C.ar         1    LIG   0.0000
   5 C5           9.3575     1.6940     2.1741 C.3          1    LIG   0.0000
   6 N6           6.8452     1.5594     1.9525 N.ar         1    LIG   0.0000
   7 C7           5.5831     1.7958     2.3563 C.ar         1    LIG   0.0000
   8 N8           4.4852     1.3495     1.6010 N.pl3        1    LIG   0.0000
   9 N9           3.2248     1.5323     1.9138 N.2          1    LIG   0.0000
  10 C10          2.4498     1.0000     1.0000 C.2          1    LIG   0.0000
  11 C11          1.0000     1.0000     1.0000 C.2          1    LIG   0.0000
  12 O12          0.4000     1.5162     0.0980 O.2          1    LIG   0.0000
  13 N13          0.2997     0.3975     2.0528 N.am         1    LIG   0.0000
  14 C14         -1.1720     0.4301     2.0225 C.3          1    LIG   0.0000
  15 C15         -1.8111    -0.6751     2.8527 C.3          1    LIG   0.0000
  16 C16         -3.0793    -1.1360     2.1519 C.3          1    LIG   0.0000
  17 C17         -3.7345    -2.2408     2.9647 C.3          1    LIG   0.0000
  18 C18         -4.0400     0.0346     2.0212 C.3          1    LIG   0.0000
  19 C19         -2.7313    -1.6626     0.7692 C.3          1    LIG   0.0000
  20 C20         -0.9047    -1.8819     3.0543 C.3          1    LIG   0.0000
  21 C21          0.3942    -1.3776     3.6625 C.ar         1    LIG   0.0000
  22 C22          1.0024    -2.0470     4.7204 C.ar         1    LIG   0.0000
  23 C23          2.1748    -1.5378     5.2694 C.ar         1    LIG   0.0000
  24 C24          2.7496    -0.3740     4.7704 C.ar         1    LIG   0.0000
  25 C25          2.1262     0.2652     3.7035 C.ar         1    LIG   0.0000
  26 C26          0.9511    -0.2203     3.1325 C.ar         1    LIG   0.0000
  27 C27          3.2860     0.4286     0.0189 C.2          1    LIG   0.0000
  28 C28          2.8500    -0.3050    -1.2405 C.3          1    LIG   0.0000
  29 C29          2.7026    -1.7873    -0.9381 C.3          1    LIG   0.0000
  30 O30          2.2956    -2.4720    -2.1137 O.3          1    LIG   0.0000
  31 C31          4.5570     0.6665     0.4308 C.2          1    LIG   0.0000
  32 O32          5.6856     0.2931    -0.2104 O.3          1    LIG  -1.0000
  33 N33          5.4082     2.4756     3.5051 N.ar         1    LIG   0.0000
  34 H           -2.0557    -0.3037     3.7484 H            1    LIG   0.0000
  35 H            7.1129     3.9230     5.9524 H            1    LIG   0.0000
  36 H            5.7105     4.5284     5.3751 H            1    LIG   0.0000
  37 H            5.7123     3.1223     6.2054 H            1    LIG   0.0000
  38 H            8.5039     2.9823     4.3581 H            1    LIG   0.0000
  39 H           10.0012     2.0828     2.8333 H            1    LIG   0.0000
  40 H            9.5049     0.7073     2.1064 H            1    LIG   0.0000
  41 H            9.5025     2.1149     1.2787 H            1    LIG   0.0000
  42 H           -1.4731     0.3304     1.0742 H            1    LIG   0.0000
  43 H           -1.4782     1.3131     2.3784 H            1    LIG   0.0000
  44 H           -4.5685    -2.5439     2.5038 H            1    LIG   0.0000
  45 H           -3.1024    -3.0109     3.0507 H            1    LIG   0.0000
  46 H           -3.9634    -1.8943     3.8744 H            1    LIG   0.0000
  47 H           -4.8741    -0.2685     1.5603 H            1    LIG   0.0000
  48 H           -4.2690     0.3811     2.9309 H            1    LIG   0.0000
  49 H           -3.6090     0.7615     1.4865 H            1    LIG   0.0000
  50 H           -3.5653    -1.9657     0.3083 H            1    LIG   0.0000
  51 H           -2.3003    -0.9358     0.2344 H            1    LIG   0.0000
  52 H           -2.0992    -2.4328     0.8552 H            1    LIG   0.0000
  53 H           -1.3398    -2.5370     3.6721 H            1    LIG   0.0000
  54 H           -0.7222    -2.3230     2.1756 H            1    LIG   0.0000
  55 H            0.5998    -2.8875     5.0829 H            1    LIG   0.0000
  56 H            2.6100    -2.0150     6.0329 H            1    LIG   0.0000
  57 H            3.5898    -0.0057     5.1686 H            1    LIG   0.0000
  58 H            2.5346     1.1000     3.3342 H            1    LIG   0.0000
  59 H            3.5374    -0.1774    -1.9555 H            1    LIG   0.0000
  60 H            1.9729     0.0604    -1.5524 H            1    LIG   0.0000
  61 H            3.5796    -2.1527    -0.6262 H            1    LIG   0.0000
  62 H            2.0151    -1.9149    -0.2232 H            1    LIG   0.0000
  63 H            2.1986    -3.4472    -1.9147 H            1    LIG   0.0000
@<TRIPOS>BOND
   1        1        2 1
   2        2        3 ar
   3        3        4 ar
   4        4        5 1
   5        4        6 ar
   6        6        7 ar
   7        7        8 1
   8        8        9 1
   9        9       10 2
  10       10       11 1
  11       11       12 2
  12       11       13 am
  13       13       14 1
  14       14       15 1
  15       15       16 1
  16       16       17 1
  17       16       18 1
  18       16       19 1
  19       15       20 1
  20       20       21 1
  21       21       22 ar
  22       22       23 ar
  23       23       24 ar
  24       24       25 ar
  25       25       26 ar
  26       26       21 ar
  27       26       13 1
  28       10       27 1
  29       27       28 1
  30       28       29 1
  31       29       30 1
  32       27       31 2
  33       31        8 1
  34       31       32 1
  35        7       33 ar
  36       33        2 ar
  37       15       34 1
  38        1       35 1
  39        1       36 1
  40        1       37 1
  41        3       38 1
  42        5       39 1
  43        5       40 1
  44        5       41 1
  45       14       42 1
  46       14       43 1
  47       17       44 1
  48       17       45 1
  49       17       46 1
  50       18       47 1
  51       18       48 1
  52       18       49 1
  53       19       50 1
  54       19       51 1
  55       19       52 1
  56       20       53 1
  57       20       54 1
  58       22       55 1
  59       23       56 1
  60       24       57 1
  61       25       58 1
  62       28       59 1
  63       28       60 1
  64       29       61 1
  65       29       62 1
  66       30       63 1

@<TRIPOS>MOLECULE

  63   66
SMALL
USER_CHARGES
@<TRIPOS>ATOM
   1 C1           6.2231     3.6900     5.5598 C.3          1    LIG   0.0000
   2 C2           6.4271     2.9221     4.2591 C.ar         1    LIG   0.0000
   3 C3           7.7222     2.6643     3.8216 C.ar         1    LIG   0.0000
   4 C4           7.9298     1.9641     2.6376 C.ar         1    LIG   0.0000
   5 C5           9.3575     1.6940     2.1741 C.3          1    LIG   0.0000
   6 N6           6.8452     1.5594     1.9525 N.ar         1    LIG   0.0000
   7 C7           5.5831     1.7958     2.3563 C.ar         1    LIG   0.0000
   8 N8           4.4852     1.3495     1.6010 N.pl3        1    LIG   0.0000
   9 N9           3.2248     1.5323     1.9138 N.2          1    LIG   0.0000
  10 C10          2.4498     1.0000     1.0000 C.2          1    LIG   0.0000
  11 C11          1.0000     1.0000     1.0000 C.2          1    LIG   0.0000
  12 O12          0.4000     1.5162     0.0980 O.2          1    LIG   0.0000
  13 N13          0.2997     0.3975     2.0528 N.am         1    LIG   0.0000
  14 C14          1.0723    -0.2364     3.1340 C.3          1    LIG   0.0000
  15 C15          0.2924    -0.3519     4.4370 C.3          1    LIG   0.0000
  16 C16          1.2550    -0.1539     5.5971 C.3          1    LIG   0.0000
  17 C17          0.4965    -0.2653     6.9096 C.3          1    LIG   0.0000
  18 C18          2.3371    -1.2201     5.5453 C.3          1    LIG   0.0000
  19 C19          1.8938     1.2217     5.4963 C.3          1    LIG   0.0000
  20 C20         -0.8314     0.6679     4.5622 C.3          1    LIG   0.0000
  21 C21         -1.7211     0.5156     3.3388 C.ar         1    LIG   0.0000
  22 C22         -3.1083     0.5149     3.4520 C.ar         1    LIG   0.0000
  23 C23         -3.8881     0.3434     2.3128 C.ar         1    LIG   0.0000
  24 C24         -3.2998     0.1800     1.0634 C.ar         1    LIG   0.0000
  25 C25         -1.9113     0.1992     0.9800 C.ar         1    LIG   0.0000
  26 C26         -1.1034     0.3688     2.1031 C.ar         1    LIG   0.0000
  27 C27          3.2860     0.4286     0.0189 C.2          1    LIG   0.0000
  28 C28          2.8500    -0.3050    -1.2405 C.3          1    LIG   0.0000
  29 C29          2.7026    -1.7873    -0.9381 C.3          1    LIG   0.0000
  30 O30          2.2956    -2.4720    -2.1137 O.3          1    LIG   0.0000
  31 C31          4.5570     0.6665     0.4308 C.2          1    LIG   0.0000
  32 O32          5.6856     0.2931    -0.2104 O.3          1    LIG  -1.0000
  33 N33          5.4082     2.4756     3.5051 N.ar         1    LIG   0.0000
  34 H           -0.0988    -1.2703     4.4971 H            1    LIG   0.0000
  35 H            7.1129     3.9230     5.9524 H            1    LIG   0.0000
  36 H            5.7105     4.5284     5.3751 H            1    LIG   0.0000
  37 H            5.7123     3.1223     6.2054 H            1    LIG   0.0000
  38 H            8.5039     2.9823     4.3581 H            1    LIG   0.0000
  39 H           10.0012     2.0828     2.8333 H            1    LIG   0.0000
  40 H            9.5049     0.7073     2.1064 H            1    LIG   0.0000
  41 H            9.5025     2.1149     1.2787 H            1    LIG   0.0000
  42 H            1.8928     0.3101     3.3015 H            1    LIG   0.0000
  43 H            1.3377    -1.1545     2.8395 H            1    LIG   0.0000
  44 H            1.1296    -0.1351     7.6726 H            1    LIG   0.0000
  45 H           -0.2155     0.4361     6.9437 H            1    LIG   0.0000
  46 H            0.0762    -1.1703     6.9759 H            1    LIG   0.0000
  47 H            2.9703    -1.0899     6.3083 H            1    LIG   0.0000
  48 H            1.9169    -2.1251     5.6116 H            1    LIG   0.0000
  49 H            2.8362    -1.1468     4.6818 H            1    LIG   0.0000
  50 H            2.5269     1.3519     6.2594 H            1    LIG   0.0000
  51 H            2.3929     1.2950     4.6329 H            1    LIG   0.0000
  52 H            1.1819     1.9231     5.5305 H            1    LIG   0.0000
  53 H           -1.3599     0.4939     5.3931 H            1    LIG   0.0000
  54 H           -0.4519     1.5924     4.5960 H            1    LIG   0.0000
  55 H           -3.5410     0.6367     4.3452 H            1    LIG   0.0000
  56 H           -4.8849     0.3375     2.3935 H            1    LIG   0.0000
  57 H           -3.8608     0.0520     0.2455 H            1    LIG   0.0000
  58 H           -1.4788     0.0878     0.0853 H            1    LIG   0.0000
  59 H            3.5374    -0.1774    -1.9555 H            1    LIG   0.0000
  60 H            1.9729     0.0604    -1.5524 H            1    LIG   0.0000
  61 H            3.5796    -2.1527    -0.6262 H            1    LIG   0.0000
  62 H            2.0151    -1.9149    -0.2232 H            1    LIG   0.0000
  63 H            2.1986    -3.4472    -1.9147 H            1    LIG   0.0000
@<TRIPOS>BOND
   1        1        2 1
   2        2        3 ar
   3        3        4 ar
   4        4        5 1
   5        4        6 ar
   6        6        7 ar
   7        7        8 1
   8        8        9 1
   9        9       10 2
  10       10       11 1
  11       11       12 2
  12       11       13 am
  13       13       14 1
  14       14       15 1
  15       15       16 1
  16       16       17 1
  17       16       18 1
  18       16       19 1
  19       15       20 1
  20       20       21 1
  21       21       22 ar
  22       22       23 ar
  23       23       24 ar
  24       24       25 ar
  25       25       26 ar
  26       26       21 ar
  27       26       13 1
  28       10       27 1
  29       27       28 1
  30       28       29 1
  31       29       30 1
  32       27       31 2
  33       31        8 1
  34       31       32 1
  35        7       33 ar
  36       33        2 ar
  37       15       34 1
  38        1       35 1
  39        1       36 1
  40        1       37 1
  41        3       38 1
  42        5       39 1
  43        5       40 1
  44        5       41 1
  45       14       42 1
  46       14       43 1
  47       17       44 1
  48       17       45 1
  49       17       46 1
  50       18       47 1
  51       18       48 1
  52       18       49 1
  53       19       50 1
  54       19       51 1
  55       19       52 1
  56       20       53 1
  57       20       54 1
  58       22       55 1
  59       23       56 1
  60       24       57 1
  61       25       58 1
  62       28       59 1
  63       28       60 1
  64       29       61 1
  65       29       62 1
  66       30       63 1

@<TRIPOS>MOLECULE

  63   66
SMALL
USER_CHARGES
@<TRIPOS>ATOM
   1 C1           9.1441     0.7491     3.0515 C.3          1    LIG   0.0000
   2 C2           7.8250     1.5126     3.0599 C.ar         1    LIG   0.0000
   3 C3           7.7161     2.6665     3.8292 C.ar         1    LIG   0.0000
   4 C4           6.5212     3.3784     3.8496 C.ar         1    LIG   0.0000
   5 C5           6.4215     4.6396     4.7015 C.3          1    LIG   0.0000
   6 N6           5.5010     2.9086     3.1091 N.ar         1    LIG   0.0000
   7 C7           5.5831     1.7958     2.3563 C.ar         1    LIG   0.0000
   8 N8           4.4852     1.3495     1.6010 N.pl3        1    LIG   0.0000
   9 N9           3.2248     1.5323     1.9138 N.2          1    LIG   0.0000
  10 C10          2.4498     1.0000     1.0000 C.2          1    LIG   0.0000
  11 C11          1.0000     1.0000     1.0000 C.2          1    LIG   0.0000
  12 O12          0.4000     1.5162     0.0980 O.2          1    LIG   0.0000
  13 N13          0.2997     0.3975     2.0528 N.am         1    LIG   0.0000
  14 C14         -1.1720     0.4301     2.0225 C.3          1    LIG   0.0000
  15 C15         -1.8111    -0.6751     2.8527 C.3          1    LIG   0.0000
  16 C16         -3.0793    -1.1360     2.1519 C.3          1    LIG   0.0000
  17 C17         -3.7345    -2.2408     2.9647 C.3          1    LIG   0.0000
  18 C18         -4.0400     0.0346     2.0212 C.3          1    LIG   0.0000
  19 C19         -2.7313    -1.6626     0.7692 C.3          1    LIG   0.0000
  20 C20         -0.9047    -1.8819     3.0543 C.3          1    LIG   0.0000
  21 C21          0.3942    -1.3776     3.6625 C.ar         1    LIG   0.0000
  22 C22          1.0024    -2.0470     4.7204 C.ar         1    LIG   0.0000
  23 C23          2.1748    -1.5378     5.2694 C.ar         1    LIG   0.0000
  24 C24          2.7496    -0.3740     4.7704 C.ar         1    LIG   0.0000
  25 C25          2.1262     0.2652     3.7035 C.ar         1    LIG   0.0000
  26 C26          0.9511    -0.2203     3.1325 C.ar         1    LIG   0.0000
  27 C27          3.2860     0.4286     0.0189 C.2          1    LIG   0.0000
  28 C28          2.8500    -0.3050    -1.2405 C.3          1    LIG   0.0000
  29 C29          2.7026    -1.7873    -0.9381 C.3          1    LIG   0.0000
  30 O30          2.2956    -2.4720    -2.1137 O.3          1    LIG   0.0000
  31 C31          4.5570     0.6665     0.4308 C.2          1    LIG   0.0000
  32 O32          5.6856     0.2931    -0.2104 O.3          1    LIG  -1.0000
  33 N33          6.7499     1.1242     2.3533 N.ar         1    LIG   0.0000
  34 H           -2.0557    -0.3037     3.7484 H            1    LIG   0.0000
  35 H            9.8021     1.2138     3.6441 H            1    LIG   0.0000
  36 H            8.9930    -0.1811     3.3862 H            1    LIG   0.0000
  37 H            9.5028     0.7135     2.1187 H            1    LIG   0.0000
  38 H            8.4967     2.9842     4.3674 H            1    LIG   0.0000
  39 H            7.2938     4.7994     5.1636 H            1    LIG   0.0000
  40 H            6.2063     5.4212     4.1160 H            1    LIG   0.0000
  41 H            5.6991     4.5250     5.3834 H            1    LIG   0.0000
  42 H           -1.4731     0.3304     1.0742 H            1    LIG   0.0000
  43 H           -1.4782     1.3131     2.3784 H            1    LIG   0.0000
  44 H           -4.5685    -2.5439     2.5038 H            1    LIG   0.0000
  45 H           -3.1024    -3.0109     3.0507 H            1    LIG   0.0000
  46 H           -3.9634    -1.8943     3.8744 H            1    LIG   0.0000
  47 H           -4.8741    -0.2685     1.5603 H            1    LIG   0.0000
  48 H           -4.2690     0.3811     2.9309 H            1    LIG   0.0000
  49 H           -3.6090     0.7615     1.4865 H            1    LIG   0.0000
  50 H           -3.5653    -1.9657     0.3083 H            1    LIG   0.0000
  51 H           -2.3003    -0.9358     0.2344 H            1    LIG   0.0000
  52 H           -2.0992    -2.4328     0.8552 H            1    LIG   0.0000
  53 H           -1.3398    -2.5370     3.6721 H            1    LIG   0.0000
  54 H           -0.7222    -2.3230     2.1756 H            1    LIG   0.0000
  55 H            0.5998    -2.8875     5.0829 H            1    LIG   0.0000
  56 H            2.6100    -2.0150     6.0329 H            1    LIG   0.0000
  57 H            3.5898    -0.0057     5.1686 H            1    LIG   0.0000
  58 H            2.5346     1.1000     3.3342 H            1    LIG   0.0000
  59 H            3.5374    -0.1774    -1.9555 H            1    LIG   0.0000
  60 H            1.9729     0.0604    -1.5524 H            1    LIG   0.0000
  61 H            3.5796    -2.1527    -0.6262 H            1    LIG   0.0000
  62 H            2.0151    -1.9149    -0.2232 H            1    LIG   0.0000
  63 H            2.1986    -3.4472    -1.9147 H            1    LIG   0.0000
@<TRIPOS>BOND
   1        1        2 1
   2        2        3 ar
   3        3        4 ar
   4        4        5 1
   5        4        6 ar
   6        6        7 ar
   7        7        8 1
   8        8        9 1
   9        9       10 2
  10       10       11 1
  11       11       12 2
  12       11       13 am
  13       13       14 1
  14       14       15 1
  15       15       16 1
  16       16       17 1
  17       16       18 1
  18       16       19 1
  19       15       20 1
  20       20       21 1
  21       21       22 ar
  22       22       23 ar
  23       23       24 ar
  24       24       25 ar
  25       25       26 ar
  26       26       21 ar
  27       26       13 1
  28       10       27 1
  29       27       28 1
  30       28       29 1
  31       29       30 1
  32       27       31 2
  33       31        8 1
  34       31       32 1
  35        7       33 ar
  36       33        2 ar
  37       15       34 1
  38        1       35 1
  39        1       36 1
  40        1       37 1
  41        3       38 1
  42        5       39 1
  43        5       40 1
  44        5       41 1
  45       14       42 1
  46       14       43 1
  47       17       44 1
  48       17       45 1
  49       17       46 1
  50       18       47 1
  51       18       48 1
  52       18       49 1
  53       19       50 1
  54       19       51 1
  55       19       52 1
  56       20       53 1
  57       20       54 1
  58       22       55 1
  59       23       56 1
  60       24       57 1
  61       25       58 1
  62       28       59 1
  63       28       60 1
  64       29       61 1
  65       29       62 1
  66       30       63 1

@<TRIPOS>MOLECULE

  63   66
SMALL
USER_CHARGES
@<TRIPOS>ATOM
   1 C1           9.1441     0.7491     3.0515 C.3          1    LIG   0.0000
   2 C2           7.8250     1.5126     3.0599 C.ar         1    LIG   0.0000
   3 C3           7.7161     2.6665     3.8292 C.ar         1    LIG   0.0000
   4 C4           6.5212     3.3784     3.8496 C.ar         1    LIG   0.0000
   5 C5           6.4215     4.6396     4.7015 C.3          1    LIG   0.0000
   6 N6           5.5010     2.9086     3.1091 N.ar         1    LIG   0.0000
   7 C7           5.5831     1.7958     2.3563 C.ar         1    LIG   0.0000
   8 N8           4.4852     1.3495     1.6010 N.pl3        1    LIG   0.0000
   9 N9           3.2248     1.5323     1.9138 N.2          1    LIG   0.0000
  10 C10          2.4498     1.0000     1.0000 C.2          1    LIG   0.0000
  11 C11          1.0000     1.0000     1.0000 C.2          1    LIG   0.0000
  12 O12          0.4000     1.5162     0.0980 O.2          1    LIG   0.0000
  13 N13          0.2997     0.3975     2.0528 N.am         1    LIG   0.0000
  14 C14          1.0723    -0.2364     3.1340 C.3          1    LIG   0.0000
  15 C15          0.2924    -0.3519     4.4370 C.3          1    LIG   0.0000
  16 C16          1.2550    -0.1539     5.5971 C.3          1    LIG   0.0000
  17 C17          0.4965    -0.2653     6.9096 C.3          1    LIG   0.0000
  18 C18          2.3371    -1.2201     5.5453 C.3          1    LIG   0.0000
  19 C19          1.8938     1.2217     5.4963 C.3          1    LIG   0.0000
  20 C20         -0.8314     0.6679     4.5622 C.3          1    LIG   0.0000
  21 C21         -1.7211     0.5156     3.3388 C.ar         1    LIG   0.0000
  22 C22         -3.1083     0.5149     3.4520 C.ar         1    LIG   0.0000
  23 C23         -3.8881     0.3434     2.3128 C.ar         1    LIG   0.0000
  24 C24         -3.2998     0.1800     1.0634 C.ar         1    LIG   0.0000
  25 C25         -1.9113     0.1992     0.9800 C.ar         1    LIG   0.0000
  26 C26         -1.1034     0.3688     2.1031 C.ar         1    LIG   0.0000
  27 C27          3.2860     0.4286     0.0189 C.2          1    LIG   0.0000
  28 C28          2.8500    -0.3050    -1.2405 C.3          1    LIG   0.0000
  29 C29          2.7026    -1.7873    -0.9381 C.3          1    LIG   0.0000
  30 O30          2.2956    -2.4720    -2.1137 O.3          1    LIG   0.0000
  31 C31          4.5570     0.6665     0.4308 C.2          1    LIG   0.0000
  32 O32          5.6856     0.2931    -0.2104 O.3          1    LIG  -1.0000
  33 N33          6.7499     1.1242     2.3533 N.ar         1    LIG   0.0000
  34 H           -0.0988    -1.2703     4.4971 H            1    LIG   0.0000
  35 H            9.8021     1.2138     3.6441 H            1    LIG   0.0000
  36 H            8.9930    -0.1811     3.3862 H            1    LIG   0.0000
  37 H            9.5028     0.7135     2.1187 H            1    LIG   0.0000
  38 H            8.4967     2.9842     4.3674 H            1    LIG   0.0000
  39 H            7.2938     4.7994     5.1636 H            1    LIG   0.0000
  40 H            6.2063     5.4212     4.1160 H            1    LIG   0.0000
  41 H            5.6991     4.5250     5.3834 H            1    LIG   0.0000
  42 H            1.8928     0.3101     3.3015 H            1    LIG   0.0000
  43 H            1.3377    -1.1545     2.8395 H            1    LIG   0.0000
  44 H            1.1296    -0.1351     7.6726 H            1    LIG   0.0000
  45 H           -0.2155     0.4361     6.9437 H            1    LIG   0.0000
  46 H            0.0762    -1.1703     6.9759 H            1    LIG   0.0000
  47 H            2.9703    -1.0899     6.3083 H            1    LIG   0.0000
  48 H            1.9169    -2.1251     5.6116 H            1    LIG   0.0000
  49 H            2.8362    -1.1468     4.6818 H            1    LIG   0.0000
  50 H            2.5269     1.3519     6.2594 H            1    LIG   0.0000
  51 H            2.3929     1.2950     4.6329 H            1    LIG   0.0000
  52 H            1.1819     1.9231     5.5305 H            1    LIG   0.0000
  53 H           -1.3599     0.4939     5.3931 H            1    LIG   0.0000
  54 H           -0.4519     1.5924     4.5960 H            1    LIG   0.0000
  55 H           -3.5410     0.6367     4.3452 H            1    LIG   0.0000
  56 H           -4.8849     0.3375     2.3935 H            1    LIG   0.0000
  57 H           -3.8608     0.0520     0.2455 H            1    LIG   0.0000
  58 H           -1.4788     0.0878     0.0853 H            1    LIG   0.0000
  59 H            3.5374    -0.1774    -1.9555 H            1    LIG   0.0000
  60 H            1.9729     0.0604    -1.5524 H            1    LIG   0.0000
  61 H            3.5796    -2.1527    -0.6262 H            1    LIG   0.0000
  62 H            2.0151    -1.9149    -0.2232 H            1    LIG   0.0000
  63 H            2.1986    -3.4472    -1.9147 H            1    LIG   0.0000
@<TRIPOS>BOND
   1        1        2 1
   2        2        3 ar
   3        3        4 ar
   4        4        5 1
   5        4        6 ar
   6        6        7 ar
   7        7        8 1
   8        8        9 1
   9        9       10 2
  10       10       11 1
  11       11       12 2
  12       11       13 am
  13       13       14 1
  14       14       15 1
  15       15       16 1
  16       16       17 1
  17       16       18 1
  18       16       19 1
  19       15       20 1
  20       20       21 1
  21       21       22 ar
  22       22       23 ar
  23       23       24 ar
  24       24       25 ar
  25       25       26 ar
  26       26       21 ar
  27       26       13 1
  28       10       27 1
  29       27       28 1
  30       28       29 1
  31       29       30 1
  32       27       31 2
  33       31        8 1
  34       31       32 1
  35        7       33 ar
  36       33        2 ar
  37       15       34 1
  38        1       35 1
  39        1       36 1
  40        1       37 1
  41        3       38 1
  42        5       39 1
  43        5       40 1
  44        5       41 1
  45       14       42 1
  46       14       43 1
  47       17       44 1
  48       17       45 1
  49       17       46 1
  50       18       47 1
  51       18       48 1
  52       18       49 1
  53       19       50 1
  54       19       51 1
  55       19       52 1
  56       20       53 1
  57       20       54 1
  58       22       55 1
  59       23       56 1
  60       24       57 1
  61       25       58 1
  62       28       59 1
  63       28       60 1
  64       29       61 1
  65       29       62 1
  66       30       63 1

@<TRIPOS>MOLECULE

  63   66
SMALL
USER_CHARGES
@<TRIPOS>ATOM
   1 C1           7.7880     0.5337     5.1501 C.3          1    LIG   0.0000
   2 C2           7.1755     1.4106     4.0644 C.ar         1    LIG   0.0000
   3 C3           7.7179     2.6691     3.8250 C.ar         1    LIG   0.0000
   4 C4           7.1741     3.4844     2.8378 C.ar         1    LIG   0.0000
   5 C5           7.7818     4.8617     2.5928 C.3          1    LIG   0.0000
   6 N6           6.1240     3.0099     2.1437 N.ar         1    LIG   0.0000
   7 C7           5.5831     1.7958     2.3563 C.ar         1    LIG   0.0000
   8 N8           4.4852     1.3495     1.6010 N.pl3        1    LIG   0.0000
   9 N9           3.2248     1.5323     1.9138 N.2          1    LIG   0.0000
  10 C10          2.4498     1.0000     1.0000 C.2          1    LIG   0.0000
  11 C11          1.0000     1.0000     1.0000 C.2          1    LIG   0.0000
  12 O12          0.4000     1.5162     0.0980 O.2          1    LIG   0.0000
  13 N13          0.2994     0.3973     2.0532 N.am         1    LIG   0.0000
  14 C14         -1.1753     0.4075     2.0023 C.3          1    LIG   0.0000
  15 C15         -1.8284     0.2842     3.3742 C.3          1    LIG   0.0000
  16 C16         -2.3939    -1.1120     3.5850 C.3          1    LIG   0.0000
  17 C17         -3.0354    -1.1965     4.9604 C.3          1    LIG   0.0000
  18 C18         -3.4389    -1.4016     2.5199 C.3          1    LIG   0.0000
  19 C19         -1.2725    -2.1333     3.4854 C.3          1    LIG   0.0000
  20 C20         -0.9041     0.6951     4.5127 C.3          1    LIG   0.0000
  21 C21          0.3946    -0.0831     4.3933 C.ar         1    LIG   0.0000
  22 C22          1.0210    -0.6622     5.4950 C.ar         1    LIG   0.0000
  23 C23          2.1932    -1.3978     5.3533 C.ar         1    LIG   0.0000
  24 C24          2.7581    -1.5548     4.0921 C.ar         1    LIG   0.0000
  25 C25          2.1303    -0.9582     3.0029 C.ar         1    LIG   0.0000
  26 C26          0.9557    -0.2192     3.1305 C.ar         1    LIG   0.0000
  27 C27          3.2860     0.4286     0.0189 C.2          1    LIG   0.0000
  28 C28          2.8500    -0.3050    -1.2405 C.3          1    LIG   0.0000
  29 C29          2.7070     0.6887    -2.3818 C.3          1    LIG   0.0000
  30 O30          2.3001     0.0040    -3.5574 O.3          1    LIG   0.0000
  31 C31          4.5570     0.6665     0.4308 C.2          1    LIG   0.0000
  32 O32          5.6856     0.2931    -0.2104 O.3          1    LIG  -1.0000
  33 N33          6.1268     1.0256     3.3173 N.ar         1    LIG   0.0000
  34 H           -2.6029     0.9166     3.3856 H            1    LIG   0.0000
  35 H            8.5532     1.0164     5.5762 H            1    LIG   0.0000
  36 H            7.0963     0.3283     5.8424 H            1    LIG   0.0000
  37 H            8.1166    -0.3190     4.7439 H            1    LIG   0.0000
  38 H            8.4987     2.9876     4.3626 H            1    LIG   0.0000
  39 H            8.5483     5.0040     3.2191 H            1    LIG   0.0000
  40 H            8.1074     4.9193     1.6491 H            1    LIG   0.0000
  41 H            7.0882     5.5647     2.7497 H            1    LIG   0.0000
  42 H           -1.4785    -0.3594     1.4367 H            1    LIG   0.0000
  43 H           -1.4723     1.2668     1.5858 H            1    LIG   0.0000
  44 H           -3.4072    -2.1145     5.0990 H            1    LIG   0.0000
  45 H           -2.3479    -1.0061     5.6612 H            1    LIG   0.0000
  46 H           -3.7732    -0.5247     5.0260 H            1    LIG   0.0000
  47 H           -3.8107    -2.3195     2.6585 H            1    LIG   0.0000
  48 H           -4.1767    -0.7297     2.5854 H            1    LIG   0.0000
  49 H           -3.0169    -1.3460     1.6150 H            1    LIG   0.0000
  50 H           -1.6442    -3.0512     3.6240 H            1    LIG   0.0000
  51 H           -0.8504    -2.0777     2.5805 H            1    LIG   0.0000
  52 H           -0.5849    -1.9428     4.1861 H            1    LIG   0.0000
  53 H           -0.7151     1.6754     4.4551 H            1    LIG   0.0000
  54 H           -1.3392     0.4905     5.3895 H            1    LIG   0.0000
  55 H            0.6206    -0.5469     6.4041 H            1    LIG   0.0000
  56 H            2.6271    -1.8113     6.1537 H            1    LIG   0.0000
  57 H            3.5973    -2.0850     3.9707 H            1    LIG   0.0000
  58 H            2.5368    -1.0637     2.0954 H            1    LIG   0.0000
  59 H            1.9715    -0.7540    -1.0775 H            1    LIG   0.0000
  60 H            3.5360    -0.9919    -1.4806 H            1    LIG   0.0000
  61 H            2.0210     1.3756    -2.1418 H            1    LIG   0.0000
  62 H            3.5855     1.1377    -2.5449 H            1    LIG   0.0000
  63 H            2.2060     0.6577    -4.3083 H            1    LIG   0.0000
@<TRIPOS>BOND
   1        1        2 1
   2        2        3 ar
   3        3        4 ar
   4        4        5 1
   5        4        6 ar
   6        6        7 ar
   7        7        8 1
   8        8        9 1
   9        9       10 2
  10       10       11 1
  11       11       12 2
  12       11       13 am
  13       13       14 1
  14       14       15 1
  15       15       16 1
  16       16       17 1
  17       16       18 1
  18       16       19 1
  19       15       20 1
  20       20       21 1
  21       21       22 ar
  22       22       23 ar
  23       23       24 ar
  24       24       25 ar
  25       25       26 ar
  26       26       21 ar
  27       26       13 1
  28       10       27 1
  29       27       28 1
  30       28       29 1
  31       29       30 1
  32       27       31 2
  33       31        8 1
  34       31       32 1
  35        7       33 ar
  36       33        2 ar
  37       15       34 1
  38        1       35 1
  39        1       36 1
  40        1       37 1
  41        3       38 1
  42        5       39 1
  43        5       40 1
  44        5       41 1
  45       14       42 1
  46       14       43 1
  47       17       44 1
  48       17       45 1
  49       17       46 1
  50       18       47 1
  51       18       48 1
  52       18       49 1
  53       19       50 1
  54       19       51 1
  55       19       52 1
  56       20       53 1
  57       20       54 1
  58       22       55 1
  59       23       56 1
  60       24       57 1
  61       25       58 1
  62       28       59 1
  63       28       60 1
  64       29       61 1
  65       29       62 1
  66       30       63 1

@<TRIPOS>MOLECULE

  63   66
SMALL
USER_CHARGES
@<TRIPOS>ATOM
   1 C1           7.7880     0.5337     5.1501 C.3          1    LIG   0.0000
   2 C2           7.1755     1.4106     4.0644 C.ar         1    LIG   0.0000
   3 C3           7.7179     2.6691     3.8250 C.ar         1    LIG   0.0000
   4 C4           7.1741     3.4844     2.8378 C.ar         1    LIG   0.0000
   5 C5           7.7818     4.8617     2.5928 C.3          1    LIG   0.0000
   6 N6           6.1240     3.0099     2.1437 N.ar         1    LIG   0.0000
   7 C7           5.5831     1.7958     2.3563 C.ar         1    LIG   0.0000
   8 N8           4.4852     1.3495     1.6010 N.pl3        1    LIG   0.0000
   9 N9           3.2248     1.5323     1.9138 N.2          1    LIG   0.0000
  10 C10          2.4498     1.0000     1.0000 C.2          1    LIG   0.0000
  11 C11          1.0000     1.0000     1.0000 C.2          1    LIG   0.0000
  12 O12          0.4000     1.5162     0.0980 O.2          1    LIG   0.0000
  13 N13          0.2994     0.3973     2.0532 N.am         1    LIG   0.0000
  14 C14          1.0794    -0.2106     3.1485 C.3          1    LIG   0.0000
  15 C15          0.3217    -1.3009     3.8974 C.3          1    LIG   0.0000
  16 C16         -0.1545    -0.8008     5.2527 C.3          1    LIG   0.0000
  17 C17         -0.9040    -1.9129     5.9683 C.3          1    LIG   0.0000
  18 C18          1.0440    -0.3792     6.0870 C.3          1    LIG   0.0000
  19 C19         -1.0796     0.3893     5.0572 C.3          1    LIG   0.0000
  20 C20         -0.8194    -1.8983     3.0849 C.3          1    LIG   0.0000
  21 C21         -1.7138    -0.7723     2.5965 C.ar         1    LIG   0.0000
  22 C22         -3.1042    -0.8505     2.6433 C.ar         1    LIG   0.0000
  23 C23         -3.9001     0.2088     2.2194 C.ar         1    LIG   0.0000
  24 C24         -3.3022     1.3662     1.7324 C.ar         1    LIG   0.0000
  25 C25         -1.9130     1.4246     1.6770 C.ar         1    LIG   0.0000
  26 C26         -1.1036     0.3714     2.0985 C.ar         1    LIG   0.0000
  27 C27          3.2860     0.4286     0.0189 C.2          1    LIG   0.0000
  28 C28          2.8500    -0.3050    -1.2405 C.3          1    LIG   0.0000
  29 C29          2.7070     0.6887    -2.3818 C.3          1    LIG   0.0000
  30 O30          2.3001     0.0040    -3.5574 O.3          1    LIG   0.0000
  31 C31          4.5570     0.6665     0.4308 C.2          1    LIG   0.0000
  32 O32          5.6856     0.2931    -0.2104 O.3          1    LIG  -1.0000
  33 N33          6.1268     1.0256     3.3173 N.ar         1    LIG   0.0000
  34 H            0.9724    -2.0398     4.0721 H            1    LIG   0.0000
  35 H            8.5532     1.0164     5.5762 H            1    LIG   0.0000
  36 H            7.0963     0.3283     5.8424 H            1    LIG   0.0000
  37 H            8.1166    -0.3190     4.7439 H            1    LIG   0.0000
  38 H            8.4987     2.9876     4.3626 H            1    LIG   0.0000
  39 H            8.5483     5.0040     3.2191 H            1    LIG   0.0000
  40 H            8.1074     4.9193     1.6491 H            1    LIG   0.0000
  41 H            7.0882     5.5647     2.7497 H            1    LIG   0.0000
  42 H            1.3263     0.5079     3.7987 H            1    LIG   0.0000
  43 H            1.9106    -0.6103     2.7620 H            1    LIG   0.0000
  44 H           -1.2171    -1.5842     6.8593 H            1    LIG   0.0000
  45 H           -1.6925    -2.1903     5.4194 H            1    LIG   0.0000
  46 H           -0.2954    -2.6959     6.0969 H            1    LIG   0.0000
  47 H            0.7309    -0.0505     6.9780 H            1    LIG   0.0000
  48 H            1.6526    -1.1622     6.2156 H            1    LIG   0.0000
  49 H            1.5371     0.3524     5.6162 H            1    LIG   0.0000
  50 H           -1.3927     0.7180     5.9482 H            1    LIG   0.0000
  51 H           -0.5866     1.1209     4.5864 H            1    LIG   0.0000
  52 H           -1.8682     0.1119     4.5083 H            1    LIG   0.0000
  53 H           -0.4490    -2.3974     2.3015 H            1    LIG   0.0000
  54 H           -1.3489    -2.5236     3.6583 H            1    LIG   0.0000
  55 H           -3.5377    -1.6831     2.9878 H            1    LIG   0.0000
  56 H           -4.8966     0.1384     2.2646 H            1    LIG   0.0000
  57 H           -3.8585     2.1397     1.4286 H            1    LIG   0.0000
  58 H           -1.4795     2.2528     1.3217 H            1    LIG   0.0000
  59 H            1.9715    -0.7540    -1.0775 H            1    LIG   0.0000
  60 H            3.5360    -0.9919    -1.4806 H            1    LIG   0.0000
  61 H            2.0210     1.3756    -2.1418 H            1    LIG   0.0000
  62 H            3.5855     1.1377    -2.5449 H            1    LIG   0.0000
  63 H            2.2060     0.6577    -4.3083 H            1    LIG   0.0000
@<TRIPOS>BOND
   1        1        2 1
   2        2        3 ar
   3        3        4 ar
   4        4        5 1
   5        4        6 ar
   6        6        7 ar
   7        7        8 1
   8        8        9 1
   9        9       10 2
  10       10       11 1
  11       11       12 2
  12       11       13 am
  13       13       14 1
  14       14       15 1
  15       15       16 1
  16       16       17 1
  17       16       18 1
  18       16       19 1
  19       15       20 1
  20       20       21 1
  21       21       22 ar
  22       22       23 ar
  23       23       24 ar
  24       24       25 ar
  25       25       26 ar
  26       26       21 ar
  27       26       13 1
  28       10       27 1
  29       27       28 1
  30       28       29 1
  31       29       30 1
  32       27       31 2
  33       31        8 1
  34       31       32 1
  35        7       33 ar
  36       33        2 ar
  37       15       34 1
  38        1       35 1
  39        1       36 1
  40        1       37 1
  41        3       38 1
  42        5       39 1
  43        5       40 1
  44        5       41 1
  45       14       42 1
  46       14       43 1
  47       17       44 1
  48       17       45 1
  49       17       46 1
  50       18       47 1
  51       18       48 1
  52       18       49 1
  53       19       50 1
  54       19       51 1
  55       19       52 1
  56       20       53 1
  57       20       54 1
  58       22       55 1
  59       23       56 1
  60       24       57 1
  61       25       58 1
  62       28       59 1
  63       28       60 1
  64       29       61 1
  65       29       62 1
  66       30       63 1

@<TRIPOS>MOLECULE

  63   66
SMALL
USER_CHARGES
@<TRIPOS>ATOM
   1 C1           6.2231    -4.2939     1.0497 C.3          1    LIG   0.0000
   2 C2           6.4271    -2.7835     1.0351 C.ar         1    LIG   0.0000
   3 C3           7.7222    -2.2757     1.0305 C.ar         1    LIG   0.0000
   4 C4           7.9298    -0.9003     1.0162 C.ar         1    LIG   0.0000
   5 C5           9.3575    -0.3638     1.0140 C.3          1    LIG   0.0000
   6 N6           6.8452    -0.1045     1.0082 N.ar         1    LIG   0.0000
   7 C7           5.5831    -0.5725     1.0110 C.ar         1    LIG   0.0000
   8 N8           4.4852     0.3047     1.0022 N.pl3        1    LIG   0.0000
   9 N9           3.2248    -0.0575     1.0041 N.2          1    LIG   0.0000
  10 C10          2.4498     1.0000     1.0000 C.2          1    LIG   0.0000
  11 C11          1.0000     1.0000     1.0000 C.2          1    LIG   0.0000
  12 O12          0.4000     1.5162     0.0980 O.2          1    LIG   0.0000
  13 N13          0.2997     0.3975     2.0528 N.am         1    LIG   0.0000
  14 C14         -1.1720     0.4301     2.0225 C.3          1    LIG   0.0000
  15 C15         -1.8111    -0.6751     2.8527 C.3          1    LIG   0.0000
  16 C16         -3.0793    -1.1360     2.1519 C.3          1    LIG   0.0000
  17 C17         -3.7345    -2.2408     2.9647 C.3          1    LIG   0.0000
  18 C18         -4.0400     0.0346     2.0212 C.3          1    LIG   0.0000
  19 C19         -2.7313    -1.6626     0.7692 C.3          1    LIG   0.0000
  20 C20         -0.9047    -1.8819     3.0543 C.3          1    LIG   0.0000
  21 C21          0.3942    -1.3776     3.6625 C.ar         1    LIG   0.0000
  22 C22          1.0024    -2.0470     4.7204 C.ar         1    LIG   0.0000
  23 C23          2.1748    -1.5378     5.2694 C.ar         1    LIG   0.0000
  24 C24          2.7496    -0.3740     4.7704 C.ar         1    LIG   0.0000
  25 C25          2.1262     0.2652     3.7035 C.ar         1    LIG   0.0000
  26 C26          0.9511    -0.2203     3.1325 C.ar         1    LIG   0.0000
  27 C27          3.2860     2.1354     0.9957 C.2          1    LIG   0.0000
  28 C28          2.8500     3.5928     0.9901 C.3          1    LIG   0.0000
  29 C29          2.7026     4.0721    -0.4448 C.3          1    LIG   0.0000
  30 O30          2.2956     5.4325    -0.4500 O.3          1    LIG   0.0000
  31 C31          4.5570     1.6597     0.9958 C.2          1    LIG   0.0000
  32 O32          5.6856     2.4017     0.9930 O.3          1    LIG  -1.0000
  33 N33          5.4082    -1.9073     1.0253 N.ar         1    LIG   0.0000
  34 H           -2.0557    -0.3037     3.7484 H            1    LIG   0.0000
  35 H            7.1129    -4.7504     1.0552 H            1    LIG   0.0000
  36 H            5.7105    -4.5531     1.8682 H            1    LIG   0.0000
  37 H            5.7123    -4.5692     0.2353 H            1    LIG   0.0000
  38 H            8.5039    -2.8994     1.0376 H            1    LIG   0.0000
  39 H           10.0012    -1.1291     1.0211 H            1    LIG   0.0000
  40 H            9.5049     0.1882     0.1933 H            1    LIG   0.0000
  41 H            9.5025     0.2012     1.8262 H            1    LIG   0.0000
  42 H           -1.4731     0.3304     1.0742 H            1    LIG   0.0000
  43 H           -1.4782     1.3131     2.3784 H            1    LIG   0.0000
  44 H           -4.5685    -2.5439     2.5038 H            1    LIG   0.0000
  45 H           -3.1024    -3.0109     3.0507 H            1    LIG   0.0000
  46 H           -3.9634    -1.8943     3.8744 H            1    LIG   0.0000
  47 H           -4.8741    -0.2685     1.5603 H            1    LIG   0.0000
  48 H           -4.2690     0.3811     2.9309 H            1    LIG   0.0000
  49 H           -3.6090     0.7615     1.4865 H            1    LIG   0.0000
  50 H           -3.5653    -1.9657     0.3083 H            1    LIG   0.0000
  51 H           -2.3003    -0.9358     0.2344 H            1    LIG   0.0000
  52 H           -2.0992    -2.4328     0.8552 H            1    LIG   0.0000
  53 H           -1.3398    -2.5370     3.6721 H            1    LIG   0.0000
  54 H           -0.7222    -2.3230     2.1756 H            1    LIG   0.0000
  55 H            0.5998    -2.8875     5.0829 H            1    LIG   0.0000
  56 H            2.6100    -2.0150     6.0329 H            1    LIG   0.0000
  57 H            3.5898    -0.0057     5.1686 H            1    LIG   0.0000
  58 H            2.5346     1.1000     3.3342 H            1    LIG   0.0000
  59 H            3.5374     4.1482     1.4581 H            1    LIG   0.0000
  60 H            1.9729     3.6802     1.4625 H            1    LIG   0.0000
  61 H            3.5796     3.9847    -0.9172 H            1    LIG   0.0000
  62 H            2.0151     3.5167    -0.9128 H            1    LIG   0.0000
  63 H            2.1986     5.7478    -1.3940 H            1    LIG   0.0000
@<TRIPOS>BOND
   1        1        2 1
   2        2        3 ar
   3        3        4 ar
   4        4        5 1
   5        4        6 ar
   6        6        7 ar
   7        7        8 1
   8        8        9 1
   9        9       10 2
  10       10       11 1
  11       11       12 2
  12       11       13 am
  13       13       14 1
  14       14       15 1
  15       15       16 1
  16       16       17 1
  17       16       18 1
  18       16       19 1
  19       15       20 1
  20       20       21 1
  21       21       22 ar
  22       22       23 ar
  23       23       24 ar
  24       24       25 ar
  25       25       26 ar
  26       26       21 ar
  27       26       13 1
  28       10       27 1
  29       27       28 1
  30       28       29 1
  31       29       30 1
  32       27       31 2
  33       31        8 1
  34       31       32 1
  35        7       33 ar
  36       33        2 ar
  37       15       34 1
  38        1       35 1
  39        1       36 1
  40        1       37 1
  41        3       38 1
  42        5       39 1
  43        5       40 1
  44        5       41 1
  45       14       42 1
  46       14       43 1
  47       17       44 1
  48       17       45 1
  49       17       46 1
  50       18       47 1
  51       18       48 1
  52       18       49 1
  53       19       50 1
  54       19       51 1
  55       19       52 1
  56       20       53 1
  57       20       54 1
  58       22       55 1
  59       23       56 1
  60       24       57 1
  61       25       58 1
  62       28       59 1
  63       28       60 1
  64       29       61 1
  65       29       62 1
  66       30       63 1

@<TRIPOS>MOLECULE

  63   66
SMALL
USER_CHARGES
@<TRIPOS>ATOM
   1 C1           6.2231    -4.2939     1.0497 C.3          1    LIG   0.0000
   2 C2           6.4271    -2.7835     1.0351 C.ar         1    LIG   0.0000
   3 C3           7.7222    -2.2757     1.0305 C.ar         1    LIG   0.0000
   4 C4           7.9298    -0.9003     1.0162 C.ar         1    LIG   0.0000
   5 C5           9.3575    -0.3638     1.0140 C.3          1    LIG   0.0000
   6 N6           6.8452    -0.1045     1.0082 N.ar         1    LIG   0.0000
   7 C7           5.5831    -0.5725     1.0110 C.ar         1    LIG   0.0000
   8 N8           4.4852     0.3047     1.0022 N.pl3        1    LIG   0.0000
   9 N9           3.2248    -0.0575     1.0041 N.2          1    LIG   0.0000
  10 C10          2.4498     1.0000     1.0000 C.2          1    LIG   0.0000
  11 C11          1.0000     1.0000     1.0000 C.2          1    LIG   0.0000
  12 O12          0.4000     1.5162     0.0980 O.2          1    LIG   0.0000
  13 N13          0.2997     0.3975     2.0528 N.am         1    LIG   0.0000
  14 C14          1.0723    -0.2364     3.1340 C.3          1    LIG   0.0000
  15 C15          0.2924    -0.3519     4.4370 C.3          1    LIG   0.0000
  16 C16          1.2550    -0.1539     5.5971 C.3          1    LIG   0.0000
  17 C17          0.4965    -0.2653     6.9096 C.3          1    LIG   0.0000
  18 C18          2.3371    -1.2201     5.5453 C.3          1    LIG   0.0000
  19 C19          1.8938     1.2217     5.4963 C.3          1    LIG   0.0000
  20 C20         -0.8314     0.6679     4.5622 C.3          1    LIG   0.0000
  21 C21         -1.7211     0.5156     3.3388 C.ar         1    LIG   0.0000
  22 C22         -3.1083     0.5149     3.4520 C.ar         1    LIG   0.0000
  23 C23         -3.8881     0.3434     2.3128 C.ar         1    LIG   0.0000
  24 C24         -3.2998     0.1800     1.0634 C.ar         1    LIG   0.0000
  25 C25         -1.9113     0.1992     0.9800 C.ar         1    LIG   0.0000
  26 C26         -1.1034     0.3688     2.1031 C.ar         1    LIG   0.0000
  27 C27          3.2860     2.1354     0.9957 C.2          1    LIG   0.0000
  28 C28          2.8500     3.5928     0.9901 C.3          1    LIG   0.0000
  29 C29          2.7026     4.0721    -0.4448 C.3          1    LIG   0.0000
  30 O30          2.2956     5.4325    -0.4500 O.3          1    LIG   0.0000
  31 C31          4.5570     1.6597     0.9958 C.2          1    LIG   0.0000
  32 O32          5.6856     2.4017     0.9930 O.3          1    LIG  -1.0000
  33 N33          5.4082    -1.9073     1.0253 N.ar         1    LIG   0.0000
  34 H           -0.0988    -1.2703     4.4971 H            1    LIG   0.0000
  35 H            7.1129    -4.7504     1.0552 H            1    LIG   0.0000
  36 H            5.7105    -4.5531     1.8682 H            1    LIG   0.0000
  37 H            5.7123    -4.5692     0.2353 H            1    LIG   0.0000
  38 H            8.5039    -2.8994     1.0376 H            1    LIG   0.0000
  39 H           10.0012    -1.1291     1.0211 H            1    LIG   0.0000
  40 H            9.5049     0.1882     0.1933 H            1    LIG   0.0000
  41 H            9.5025     0.2012     1.8262 H            1    LIG   0.0000
  42 H            1.8928     0.3101     3.3015 H            1    LIG   0.0000
  43 H            1.3377    -1.1545     2.8395 H            1    LIG   0.0000
  44 H            1.1296    -0.1351     7.6726 H            1    LIG   0.0000
  45 H           -0.2155     0.4361     6.9437 H            1    LIG   0.0000
  46 H            0.0762    -1.1703     6.9759 H            1    LIG   0.0000
  47 H            2.9703    -1.0899     6.3083 H            1    LIG   0.0000
  48 H            1.9169    -2.1251     5.6116 H            1    LIG   0.0000
  49 H            2.8362    -1.1468     4.6818 H            1    LIG   0.0000
  50 H            2.5269     1.3519     6.2594 H            1    LIG   0.0000
  51 H            2.3929     1.2950     4.6329 H            1    LIG   0.0000
  52 H            1.1819     1.9231     5.5305 H            1    LIG   0.0000
  53 H           -1.3599     0.4939     5.3931 H            1    LIG   0.0000
  54 H           -0.4519     1.5924     4.5960 H            1    LIG   0.0000
  55 H           -3.5410     0.6367     4.3452 H            1    LIG   0.0000
  56 H           -4.8849     0.3375     2.3935 H            1    LIG   0.0000
  57 H           -3.8608     0.0520     0.2455 H            1    LIG   0.0000
  58 H           -1.4788     0.0878     0.0853 H            1    LIG   0.0000
  59 H            3.5374     4.1482     1.4581 H            1    LIG   0.0000
  60 H            1.9729     3.6802     1.4625 H            1    LIG   0.0000
  61 H            3.5796     3.9847    -0.9172 H            1    LIG   0.0000
  62 H            2.0151     3.5167    -0.9128 H            1    LIG   0.0000
  63 H            2.1986     5.7478    -1.3940 H            1    LIG   0.0000
@<TRIPOS>BOND
   1        1        2 1
   2        2        3 ar
   3        3        4 ar
   4        4        5 1
   5        4        6 ar
   6        6        7 ar
   7        7        8 1
   8        8        9 1
   9        9       10 2
  10       10       11 1
  11       11       12 2
  12       11       13 am
  13       13       14 1
  14       14       15 1
  15       15       16 1
  16       16       17 1
  17       16       18 1
  18       16       19 1
  19       15       20 1
  20       20       21 1
  21       21       22 ar
  22       22       23 ar
  23       23       24 ar
  24       24       25 ar
  25       25       26 ar
  26       26       21 ar
  27       26       13 1
  28       10       27 1
  29       27       28 1
  30       28       29 1
  31       29       30 1
  32       27       31 2
  33       31        8 1
  34       31       32 1
  35        7       33 ar
  36       33        2 ar
  37       15       34 1
  38        1       35 1
  39        1       36 1
  40        1       37 1
  41        3       38 1
  42        5       39 1
  43        5       40 1
  44        5       41 1
  45       14       42 1
  46       14       43 1
  47       17       44 1
  48       17       45 1
  49       17       46 1
  50       18       47 1
  51       18       48 1
  52       18       49 1
  53       19       50 1
  54       19       51 1
  55       19       52 1
  56       20       53 1
  57       20       54 1
  58       22       55 1
  59       23       56 1
  60       24       57 1
  61       25       58 1
  62       28       59 1
  63       28       60 1
  64       29       61 1
  65       29       62 1
  66       30       63 1

@<TRIPOS>MOLECULE

  63   66
SMALL
USER_CHARGES
@<TRIPOS>ATOM
   1 C1           9.1441    -0.6512    -0.2431 C.3          1    LIG   0.0000
   2 C2           7.8250    -1.0402     0.4140 C.ar         1    LIG   0.0000
   3 C3           7.7161    -2.2834     1.0287 C.ar         1    LIG   0.0000
   4 C4           6.5212    -2.6571     1.6350 C.ar         1    LIG   0.0000
   5 C5           6.4215    -4.0254     2.3012 C.3          1    LIG   0.0000
   6 N6           5.5010    -1.7809     1.5984 N.ar         1    LIG   0.0000
   7 C7           5.5831    -0.5725     1.0110 C.ar         1    LIG   0.0000
   8 N8           4.4852     0.3047     1.0022 N.pl3        1    LIG   0.0000
   9 N9           3.2248    -0.0575     1.0041 N.2          1    LIG   0.0000
  10 C10          2.4498     1.0000     1.0000 C.2          1    LIG   0.0000
  11 C11          1.0000     1.0000     1.0000 C.2          1    LIG   0.0000
  12 O12          0.4000     1.5162     0.0980 O.2          1    LIG   0.0000
  13 N13          0.2997     0.3975     2.0528 N.am         1    LIG   0.0000
  14 C14         -1.1720     0.4301     2.0225 C.3          1    LIG   0.0000
  15 C15         -1.8111    -0.6751     2.8527 C.3          1    LIG   0.0000
  16 C16         -3.0793    -1.1360     2.1519 C.3          1    LIG   0.0000
  17 C17         -3.7345    -2.2408     2.9647 C.3          1    LIG   0.0000
  18 C18         -4.0400     0.0346     2.0212 C.3          1    LIG   0.0000
  19 C19         -2.7313    -1.6626     0.7692 C.3          1    LIG   0.0000
  20 C20         -0.9047    -1.8819     3.0543 C.3          1    LIG   0.0000
  21 C21          0.3942    -1.3776     3.6625 C.ar         1    LIG   0.0000
  22 C22          1.0024    -2.0470     4.7204 C.ar         1    LIG   0.0000
  23 C23          2.1748    -1.5378     5.2694 C.ar         1    LIG   0.0000
  24 C24          2.7496    -0.3740     4.7704 C.ar         1    LIG   0.0000
  25 C25          2.1262     0.2652     3.7035 C.ar         1    LIG   0.0000
  26 C26          0.9511    -0.2203     3.1325 C.ar         1    LIG   0.0000
  27 C27          3.2860     2.1354     0.9957 C.2          1    LIG   0.0000
  28 C28          2.8500     3.5928     0.9901 C.3          1    LIG   0.0000
  29 C29          2.7026     4.0721    -0.4448 C.3          1    LIG   0.0000
  30 O30          2.2956     5.4325    -0.4500 O.3          1    LIG   0.0000
  31 C31          4.5570     1.6597     0.9958 C.2          1    LIG   0.0000
  32 O32          5.6856     2.4017     0.9930 O.3          1    LIG  -1.0000
  33 N33          6.7499    -0.2341     0.4309 N.ar         1    LIG   0.0000
  34 H           -2.0557    -0.3037     3.7484 H            1    LIG   0.0000
  35 H            9.8021    -1.3967    -0.1369 H            1    LIG   0.0000
  36 H            8.9930    -0.4760    -1.2159 H            1    LIG   0.0000
  37 H            9.5028     0.1744     0.1925 H            1    LIG   0.0000
  38 H            8.4967    -2.9084     1.0347 H            1    LIG   0.0000
  39 H            7.2938    -4.5055     2.2086 H            1    LIG   0.0000
  40 H            6.2063    -3.9091     3.2708 H            1    LIG   0.0000
  41 H            5.6991    -4.5586     1.8610 H            1    LIG   0.0000
  42 H           -1.4731     0.3304     1.0742 H            1    LIG   0.0000
  43 H           -1.4782     1.3131     2.3784 H            1    LIG   0.0000
  44 H           -4.5685    -2.5439     2.5038 H            1    LIG   0.0000
  45 H           -3.1024    -3.0109     3.0507 H            1    LIG   0.0000
  46 H           -3.9634    -1.8943     3.8744 H            1    LIG   0.0000
  47 H           -4.8741    -0.2685     1.5603 H            1    LIG   0.0000
  48 H           -4.2690     0.3811     2.9309 H            1    LIG   0.0000
  49 H           -3.6090     0.7615     1.4865 H            1    LIG   0.0000
  50 H           -3.5653    -1.9657     0.3083 H            1    LIG   0.0000
  51 H           -2.3003    -0.9358     0.2344 H            1    LIG   0.0000
  52 H           -2.0992    -2.4328     0.8552 H            1    LIG   0.0000
  53 H           -1.3398    -2.5370     3.6721 H            1    LIG   0.0000
  54 H           -0.7222    -2.3230     2.1756 H            1    LIG   0.0000
  55 H            0.5998    -2.8875     5.0829 H            1    LIG   0.0000
  56 H            2.6100    -2.0150     6.0329 H            1    LIG   0.0000
  57 H            3.5898    -0.0057     5.1686 H            1    LIG   0.0000
  58 H            2.5346     1.1000     3.3342 H            1    LIG   0.0000
  59 H            3.5374     4.1482     1.4581 H            1    LIG   0.0000
  60 H            1.9729     3.6802     1.4625 H            1    LIG   0.0000
  61 H            3.5796     3.9847    -0.9172 H            1    LIG   0.0000
  62 H            2.0151     3.5167    -0.9128 H            1    LIG   0.0000
  63 H            2.1986     5.7478    -1.3940 H            1    LIG   0.0000
@<TRIPOS>BOND
   1        1        2 1
   2        2        3 ar
   3        3        4 ar
   4        4        5 1
   5        4        6 ar
   6        6        7 ar
   7        7        8 1
   8        8        9 1
   9        9       10 2
  10       10       11 1
  11       11       12 2
  12       11       13 am
  13       13       14 1
  14       14       15 1
  15       15       16 1
  16       16       17 1
  17       16       18 1
  18       16       19 1
  19       15       20 1
  20       20       21 1
  21       21       22 ar
  22       22       23 ar
  23       23       24 ar
  24       24       25 ar
  25       25       26 ar
  26       26       21 ar
  27       26       13 1
  28       10       27 1
  29       27       28 1
  30       28       29 1
  31       29       30 1
  32       27       31 2
  33       31        8 1
  34       31       32 1
  35        7       33 ar
  36       33        2 ar
  37       15       34 1
  38        1       35 1
  39        1       36 1
  40        1       37 1
  41        3       38 1
  42        5       39 1
  43        5       40 1
  44        5       41 1
  45       14       42 1
  46       14       43 1
  47       17       44 1
  48       17       45 1
  49       17       46 1
  50       18       47 1
  51       18       48 1
  52       18       49 1
  53       19       50 1
  54       19       51 1
  55       19       52 1
  56       20       53 1
  57       20       54 1
  58       22       55 1
  59       23       56 1
  60       24       57 1
  61       25       58 1
  62       28       59 1
  63       28       60 1
  64       29       61 1
  65       29       62 1
  66       30       63 1

@<TRIPOS>MOLECULE

  63   66
SMALL
USER_CHARGES
@<TRIPOS>ATOM
   1 C1           9.1441    -0.6512    -0.2431 C.3          1    LIG   0.0000
   2 C2           7.8250    -1.0402     0.4140 C.ar         1    LIG   0.0000
   3 C3           7.7161    -2.2834     1.0287 C.ar         1    LIG   0.0000
   4 C4           6.5212    -2.6571     1.6350 C.ar         1    LIG   0.0000
   5 C5           6.4215    -4.0254     2.3012 C.3          1    LIG   0.0000
   6 N6           5.5010    -1.7809     1.5984 N.ar         1    LIG   0.0000
   7 C7           5.5831    -0.5725     1.0110 C.ar         1    LIG   0.0000
   8 N8           4.4852     0.3047     1.0022 N.pl3        1    LIG   0.0000
   9 N9           3.2248    -0.0575     1.0041 N.2          1    LIG   0.0000
  10 C10          2.4498     1.0000     1.0000 C.2          1    LIG   0.0000
  11 C11          1.0000     1.0000     1.0000 C.2          1    LIG   0.0000
  12 O12          0.4000     1.5162     0.0980 O.2          1    LIG   0.0000
  13 N13          0.2997     0.3975     2.0528 N.am         1    LIG   0.0000
  14 C14          1.0723    -0.2364     3.1340 C.3          1    LIG   0.0000
  15 C15          0.2924    -0.3519     4.4370 C.3          1    LIG   0.0000
  16 C16          1.2550    -0.1539     5.5971 C.3          1    LIG   0.0000
  17 C17          0.4965    -0.2653     6.9096 C.3          1    LIG   0.0000
  18 C18          2.3371    -1.2201     5.5453 C.3          1    LIG   0.0000
  19 C19          1.8938     1.2217     5.4963 C.3          1    LIG   0.0000
  20 C20         -0.8314     0.6679     4.5622 C.3          1    LIG   0.0000
  21 C21         -1.7211     0.5156     3.3388 C.ar         1    LIG   0.0000
  22 C22         -3.1083     0.5149     3.4520 C.ar         1    LIG   0.0000
  23 C23         -3.8881     0.3434     2.3128 C.ar         1    LIG   0.0000
  24 C24         -3.2998     0.1800     1.0634 C.ar         1    LIG   0.0000
  25 C25         -1.9113     0.1992     0.9800 C.ar         1    LIG   0.0000
  26 C26         -1.1034     0.3688     2.1031 C.ar         1    LIG   0.0000
  27 C27          3.2860     2.1354     0.9957 C.2          1    LIG   0.0000
  28 C28          2.8500     3.5928     0.9901 C.3          1    LIG   0.0000
  29 C29          2.7026     4.0721    -0.4448 C.3          1    LIG   0.0000
  30 O30          2.2956     5.4325    -0.4500 O.3          1    LIG   0.0000
  31 C31          4.5570     1.6597     0.9958 C.2          1    LIG   0.0000
  32 O32          5.6856     2.4017     0.9930 O.3          1    LIG  -1.0000
  33 N33          6.7499    -0.2341     0.4309 N.ar         1    LIG   0.0000
  34 H           -0.0988    -1.2703     4.4971 H            1    LIG   0.0000
  35 H            9.8021    -1.3967    -0.1369 H            1    LIG   0.0000
  36 H            8.9930    -0.4760    -1.2159 H            1    LIG   0.0000
  37 H            9.5028     0.1744     0.1925 H            1    LIG   0.0000
  38 H            8.4967    -2.9084     1.0347 H            1    LIG   0.0000
  39 H            7.2938    -4.5055     2.2086 H            1    LIG   0.0000
  40 H            6.2063    -3.9091     3.2708 H            1    LIG   0.0000
  41 H            5.6991    -4.5586     1.8610 H            1    LIG   0.0000
  42 H            1.8928     0.3101     3.3015 H            1    LIG   0.0000
  43 H            1.3377    -1.1545     2.8395 H            1    LIG   0.0000
  44 H            1.1296    -0.1351     7.6726 H            1    LIG   0.0000
  45 H           -0.2155     0.4361     6.9437 H            1    LIG   0.0000
  46 H            0.0762    -1.1703     6.9759 H            1    LIG   0.0000
  47 H            2.9703    -1.0899     6.3083 H            1    LIG   0.0000
  48 H            1.9169    -2.1251     5.6116 H            1    LIG   0.0000
  49 H            2.8362    -1.1468     4.6818 H            1    LIG   0.0000
  50 H            2.5269     1.3519     6.2594 H            1    LIG   0.0000
  51 H            2.3929     1.2950     4.6329 H            1    LIG   0.0000
  52 H            1.1819     1.9231     5.5305 H            1    LIG   0.0000
  53 H           -1.3599     0.4939     5.3931 H            1    LIG   0.0000
  54 H           -0.4519     1.5924     4.5960 H            1    LIG   0.0000
  55 H           -3.5410     0.6367     4.3452 H            1    LIG   0.0000
  56 H           -4.8849     0.3375     2.3935 H            1    LIG   0.0000
  57 H           -3.8608     0.0520     0.2455 H            1    LIG   0.0000
  58 H           -1.4788     0.0878     0.0853 H            1    LIG   0.0000
  59 H            3.5374     4.1482     1.4581 H            1    LIG   0.0000
  60 H            1.9729     3.6802     1.4625 H            1    LIG   0.0000
  61 H            3.5796     3.9847    -0.9172 H            1    LIG   0.0000
  62 H            2.0151     3.5167    -0.9128 H            1    LIG   0.0000
  63 H            2.1986     5.7478    -1.3940 H            1    LIG   0.0000
@<TRIPOS>BOND
   1        1        2 1
   2        2        3 ar
   3        3        4 ar
   4        4        5 1
   5        4        6 ar
   6        6        7 ar
   7        7        8 1
   8        8        9 1
   9        9       10 2
  10       10       11 1
  11       11       12 2
  12       11       13 am
  13       13       14 1
  14       14       15 1
  15       15       16 1
  16       16       17 1
  17       16       18 1
  18       16       19 1
  19       15       20 1
  20       20       21 1
  21       21       22 ar
  22       22       23 ar
  23       23       24 ar
  24       24       25 ar
  25       25       26 ar
  26       26       21 ar
  27       26       13 1
  28       10       27 1
  29       27       28 1
  30       28       29 1
  31       29       30 1
  32       27       31 2
  33       31        8 1
  34       31       32 1
  35        7       33 ar
  36       33        2 ar
  37       15       34 1
  38        1       35 1
  39        1       36 1
  40        1       37 1
  41        3       38 1
  42        5       39 1
  43        5       40 1
  44        5       41 1
  45       14       42 1
  46       14       43 1
  47       17       44 1
  48       17       45 1
  49       17       46 1
  50       18       47 1
  51       18       48 1
  52       18       49 1
  53       19       50 1
  54       19       51 1
  55       19       52 1
  56       20       53 1
  57       20       54 1
  58       22       55 1
  59       23       56 1
  60       24       57 1
  61       25       58 1
  62       28       59 1
  63       28       60 1
  64       29       61 1
  65       29       62 1
  66       30       63 1

@<TRIPOS>MOLECULE

  63   66
SMALL
USER_CHARGES
@<TRIPOS>ATOM
   1 C1           7.7880    -2.3609    -1.4789 C.3          1    LIG   0.0000
   2 C2           7.1755    -1.8591    -0.1766 C.ar         1    LIG   0.0000
   3 C3           7.7179    -2.2811     1.0330 C.ar         1    LIG   0.0000
   4 C4           7.1741    -1.8338     2.2327 C.ar         1    LIG   0.0000
   5 C5           7.7818    -2.3103     3.5479 C.3          1    LIG   0.0000
   6 N6           6.1240    -0.9954     2.1688 N.ar         1    LIG   0.0000
   7 C7           5.5831    -0.5725     1.0110 C.ar         1    LIG   0.0000
   8 N8           4.4852     0.3047     1.0022 N.pl3        1    LIG   0.0000
   9 N9           3.2248    -0.0575     1.0041 N.2          1    LIG   0.0000
  10 C10          2.4498     1.0000     1.0000 C.2          1    LIG   0.0000
  11 C11          1.0000     1.0000     1.0000 C.2          1    LIG   0.0000
  12 O12          0.4000     1.5162     0.0980 O.2          1    LIG   0.0000
  13 N13          0.2994     0.3973     2.0532 N.am         1    LIG   0.0000
  14 C14          1.0794    -0.2106     3.1485 C.3          1    LIG   0.0000
  15 C15          0.3217    -1.3009     3.8974 C.3          1    LIG   0.0000
  16 C16         -0.1545    -0.8008     5.2527 C.3          1    LIG   0.0000
  17 C17         -0.9040    -1.9129     5.9683 C.3          1    LIG   0.0000
  18 C18          1.0440    -0.3792     6.0870 C.3          1    LIG   0.0000
  19 C19         -1.0796     0.3893     5.0572 C.3          1    LIG   0.0000
  20 C20         -0.8194    -1.8983     3.0849 C.3          1    LIG   0.0000
  21 C21         -1.7138    -0.7723     2.5965 C.ar         1    LIG   0.0000
  22 C22         -3.1042    -0.8505     2.6433 C.ar         1    LIG   0.0000
  23 C23         -3.9001     0.2088     2.2194 C.ar         1    LIG   0.0000
  24 C24         -3.3022     1.3662     1.7324 C.ar         1    LIG   0.0000
  25 C25         -1.9130     1.4246     1.6770 C.ar         1    LIG   0.0000
  26 C26         -1.1036     0.3714     2.0985 C.ar         1    LIG   0.0000
  27 C27          3.2860     2.1354     0.9957 C.2          1    LIG   0.0000
  28 C28          2.8500     3.5928     0.9901 C.3          1    LIG   0.0000
  29 C29          2.7026     4.0721    -0.4448 C.3          1    LIG   0.0000
  30 O30          2.2956     5.4325    -0.4500 O.3          1    LIG   0.0000
  31 C31          4.5570     1.6597     0.9958 C.2          1    LIG   0.0000
  32 O32          5.6856     2.4017     0.9930 O.3          1    LIG  -1.0000
  33 N33          6.1268    -1.0196    -0.1365 N.ar         1    LIG   0.0000
  34 H            0.9724    -2.0398     4.0721 H            1    LIG   0.0000
  35 H            8.5532    -2.9713    -1.2739 H            1    LIG   0.0000
  36 H            7.0963    -2.8578    -2.0029 H            1    LIG   0.0000
  37 H            8.1166    -1.5828    -2.0143 H            1    LIG   0.0000
  38 H            8.4987    -2.9059     1.0400 H            1    LIG   0.0000
  39 H            8.5483    -2.9238     3.3580 H            1    LIG   0.0000
  40 H            8.1074    -1.5217     4.0696 H            1    LIG   0.0000
  41 H            7.0882    -2.7976     4.0783 H            1    LIG   0.0000
  42 H            1.3263     0.5079     3.7987 H            1    LIG   0.0000
  43 H            1.9106    -0.6103     2.7620 H            1    LIG   0.0000
  44 H           -1.2171    -1.5842     6.8593 H            1    LIG   0.0000
  45 H           -1.6925    -2.1903     5.4194 H            1    LIG   0.0000
  46 H           -0.2954    -2.6959     6.0969 H            1    LIG   0.0000
  47 H            0.7309    -0.0505     6.9780 H            1    LIG   0.0000
  48 H            1.6526    -1.1622     6.2156 H            1    LIG   0.0000
  49 H            1.5371     0.3524     5.6162 H            1    LIG   0.0000
  50 H           -1.3927     0.7180     5.9482 H            1    LIG   0.0000
  51 H           -0.5866     1.1209     4.5864 H            1    LIG   0.0000
  52 H           -1.8682     0.1119     4.5083 H            1    LIG   0.0000
  53 H           -0.4490    -2.3974     2.3015 H            1    LIG   0.0000
  54 H           -1.3489    -2.5236     3.6583 H            1    LIG   0.0000
  55 H           -3.5377    -1.6831     2.9878 H            1    LIG   0.0000
  56 H           -4.8966     0.1384     2.2646 H            1    LIG   0.0000
  57 H           -3.8585     2.1397     1.4286 H            1    LIG   0.0000
  58 H           -1.4795     2.2528     1.3217 H            1    LIG   0.0000
  59 H            3.5374     4.1482     1.4581 H            1    LIG   0.0000
  60 H            1.9729     3.6802     1.4625 H            1    LIG   0.0000
  61 H            3.5796     3.9847    -0.9172 H            1    LIG   0.0000
  62 H            2.0151     3.5167    -0.9128 H            1    LIG   0.0000
  63 H            2.1986     5.7478    -1.3940 H            1    LIG   0.0000
@<TRIPOS>BOND
   1        1        2 1
   2        2        3 ar
   3        3        4 ar
   4        4        5 1
   5        4        6 ar
   6        6        7 ar
   7        7        8 1
   8        8        9 1
   9        9       10 2
  10       10       11 1
  11       11       12 2
  12       11       13 am
  13       13       14 1
  14       14       15 1
  15       15       16 1
  16       16       17 1
  17       16       18 1
  18       16       19 1
  19       15       20 1
  20       20       21 1
  21       21       22 ar
  22       22       23 ar
  23       23       24 ar
  24       24       25 ar
  25       25       26 ar
  26       26       21 ar
  27       26       13 1
  28       10       27 1
  29       27       28 1
  30       28       29 1
  31       29       30 1
  32       27       31 2
  33       31        8 1
  34       31       32 1
  35        7       33 ar
  36       33        2 ar
  37       15       34 1
  38        1       35 1
  39        1       36 1
  40        1       37 1
  41        3       38 1
  42        5       39 1
  43        5       40 1
  44        5       41 1
  45       14       42 1
  46       14       43 1
  47       17       44 1
  48       17       45 1
  49       17       46 1
  50       18       47 1
  51       18       48 1
  52       18       49 1
  53       19       50 1
  54       19       51 1
  55       19       52 1
  56       20       53 1
  57       20       54 1
  58       22       55 1
  59       23       56 1
  60       24       57 1
  61       25       58 1
  62       28       59 1
  63       28       60 1
  64       29       61 1
  65       29       62 1
  66       30       63 1

@<TRIPOS>MOLECULE

  63   66
SMALL
USER_CHARGES
@<TRIPOS>ATOM
   1 C1           9.1441    -0.6512    -0.2431 C.3          1    LIG   0.0000
   2 C2           7.8250    -1.0402     0.4140 C.ar         1    LIG   0.0000
   3 C3           7.7161    -2.2834     1.0287 C.ar         1    LIG   0.0000
   4 C4           6.5212    -2.6571     1.6350 C.ar         1    LIG   0.0000
   5 C5           6.4215    -4.0254     2.3012 C.3          1    LIG   0.0000
   6 N6           5.5010    -1.7809     1.5984 N.ar         1    LIG   0.0000
   7 C7           5.5831    -0.5725     1.0110 C.ar         1    LIG   0.0000
   8 N8           4.4852     0.3047     1.0022 N.pl3        1    LIG   0.0000
   9 N9           3.2248    -0.0575     1.0041 N.2          1    LIG   0.0000
  10 C10          2.4498     1.0000     1.0000 C.2          1    LIG   0.0000
  11 C11          1.0000     1.0000     1.0000 C.2          1    LIG   0.0000
  12 O12          0.4000     1.5162     0.0980 O.2          1    LIG   0.0000
  13 N13          0.2994     0.3973     2.0532 N.am         1    LIG   0.0000
  14 C14         -1.1753     0.4075     2.0023 C.3          1    LIG   0.0000
  15 C15         -1.8284     0.2842     3.3742 C.3          1    LIG   0.0000
  16 C16         -2.3939    -1.1120     3.5850 C.3          1    LIG   0.0000
  17 C17         -3.0354    -1.1965     4.9604 C.3          1    LIG   0.0000
  18 C18         -3.4389    -1.4016     2.5199 C.3          1    LIG   0.0000
  19 C19         -1.2725    -2.1333     3.4854 C.3          1    LIG   0.0000
  20 C20         -0.9041     0.6951     4.5127 C.3          1    LIG   0.0000
  21 C21          0.3946    -0.0831     4.3933 C.ar         1    LIG   0.0000
  22 C22          1.0210    -0.6622     5.4950 C.ar         1    LIG   0.0000
  23 C23          2.1932    -1.3978     5.3533 C.ar         1    LIG   0.0000
  24 C24          2.7581    -1.5548     4.0921 C.ar         1    LIG   0.0000
  25 C25          2.1303    -0.9582     3.0029 C.ar         1    LIG   0.0000
  26 C26          0.9557    -0.2192     3.1305 C.ar         1    LIG   0.0000
  27 C27          3.2860     2.1354     0.9957 C.2          1    LIG   0.0000
  28 C28          2.8500     3.5928     0.9901 C.3          1    LIG   0.0000
  29 C29          2.7070     4.0844     2.4213 C.3          1    LIG   0.0000
  30 O30          2.3001     5.4448     2.4161 O.3          1    LIG   0.0000
  31 C31          4.5570     1.6597     0.9958 C.2          1    LIG   0.0000
  32 O32          5.6856     2.4017     0.9930 O.3          1    LIG  -1.0000
  33 N33          6.7499    -0.2341     0.4309 N.ar         1    LIG   0.0000
  34 H           -2.6029     0.9166     3.3856 H            1    LIG   0.0000
  35 H            9.8021    -1.3967    -0.1369 H            1    LIG   0.0000
  36 H            8.9930    -0.4760    -1.2159 H            1    LIG   0.0000
  37 H            9.5028     0.1744     0.1925 H            1    LIG   0.0000
  38 H            8.4967    -2.9084     1.0347 H            1    LIG   0.0000
  39 H            7.2938    -4.5055     2.2086 H            1    LIG   0.0000
  40 H            6.2063    -3.9091     3.2708 H            1    LIG   0.0000
  41 H            5.6991    -4.5586     1.8610 H            1    LIG   0.0000
  42 H           -1.4785    -0.3594     1.4367 H            1    LIG   0.0000
  43 H           -1.4723     1.2668     1.5858 H            1    LIG   0.0000
  44 H           -3.4072    -2.1145     5.0990 H            1    LIG   0.0000
  45 H           -2.3479    -1.0061     5.6612 H            1    LIG   0.0000
  46 H           -3.7732    -0.5247     5.0260 H            1    LIG   0.0000
  47 H           -3.8107    -2.3195     2.6585 H            1    LIG   0.0000
  48 H           -4.1767    -0.7297     2.5854 H            1    LIG   0.0000
  49 H           -3.0169    -1.3460     1.6150 H            1    LIG   0.0000
  50 H           -1.6442    -3.0512     3.6240 H            1    LIG   0.0000
  51 H           -0.8504    -2.0777     2.5805 H            1    LIG   0.0000
  52 H           -0.5849    -1.9428     4.1861 H            1    LIG   0.0000
  53 H           -0.7151     1.6754     4.4551 H            1    LIG   0.0000
  54 H           -1.3392     0.4905     5.3895 H            1    LIG   0.0000
  55 H            0.6206    -0.5469     6.4041 H            1    LIG   0.0000
  56 H            2.6271    -1.8113     6.1537 H            1    LIG   0.0000
  57 H            3.5973    -2.0850     3.9707 H            1    LIG   0.0000
  58 H            2.5368    -1.0637     2.0954 H            1    LIG   0.0000
  59 H            1.9715     3.6762     0.5197 H            1    LIG   0.0000
  60 H            3.5360     4.1442     0.5153 H            1    LIG   0.0000
  61 H            2.0210     3.5331     2.8961 H            1    LIG   0.0000
  62 H            3.5855     4.0011     2.8917 H            1    LIG   0.0000
  63 H            2.2060     5.7682     3.3577 H            1    LIG   0.0000
@<TRIPOS>BOND
   1        1        2 1
   2        2        3 ar
   3        3        4 ar
   4        4        5 1
   5        4        6 ar
   6        6        7 ar
   7        7        8 1
   8        8        9 1
   9        9       10 2
  10       10       11 1
  11       11       12 2
  12       11       13 am
  13       13       14 1
  14       14       15 1
  15       15       16 1
  16       16       17 1
  17       16       18 1
  18       16       19 1
  19       15       20 1
  20       20       21 1
  21       21       22 ar
  22       22       23 ar
  23       23       24 ar
  24       24       25 ar
  25       25       26 ar
  26       26       21 ar
  27       26       13 1
  28       10       27 1
  29       27       28 1
  30       28       29 1
  31       29       30 1
  32       27       31 2
  33       31        8 1
  34       31       32 1
  35        7       33 ar
  36       33        2 ar
  37       15       34 1
  38        1       35 1
  39        1       36 1
  40        1       37 1
  41        3       38 1
  42        5       39 1
  43        5       40 1
  44        5       41 1
  45       14       42 1
  46       14       43 1
  47       17       44 1
  48       17       45 1
  49       17       46 1
  50       18       47 1
  51       18       48 1
  52       18       49 1
  53       19       50 1
  54       19       51 1
  55       19       52 1
  56       20       53 1
  57       20       54 1
  58       22       55 1
  59       23       56 1
  60       24       57 1
  61       25       58 1
  62       28       59 1
  63       28       60 1
  64       29       61 1
  65       29       62 1
  66       30       63 1

@<TRIPOS>MOLECULE

  63   66
SMALL
USER_CHARGES
@<TRIPOS>ATOM
   1 C1           6.4326    -4.0445    -0.2070 C.3          1    LIG   0.0000
   2 C2           6.5270    -2.6646     0.4333 C.ar         1    LIG   0.0000
   3 C3           7.7211    -2.2771     1.0326 C.ar         1    LIG   0.0000
   4 C4           7.8282    -1.0214     1.6216 C.ar         1    LIG   0.0000
   5 C5           9.1452    -0.6167     2.2755 C.3          1    LIG   0.0000
   6 N6           6.7481    -0.2202     1.5859 N.ar         1    LIG   0.0000
   7 C7           5.5831    -0.5725     1.0110 C.ar         1    LIG   0.0000
   8 N8           4.4852     0.3047     1.0022 N.pl3        1    LIG   0.0000
   9 N9           3.2248    -0.0575     1.0041 N.2          1    LIG   0.0000
  10 C10          2.4498     1.0000     1.0000 C.2          1    LIG   0.0000
  11 C11          1.0000     1.0000     1.0000 C.2          1    LIG   0.0000
  12 O12          0.4000     1.5162     0.0980 O.2          1    LIG   0.0000
  13 N13          0.2994     0.3973     2.0532 N.am         1    LIG   0.0000
  14 C14         -1.1753     0.4075     2.0023 C.3          1    LIG   0.0000
  15 C15         -1.8284     0.2842     3.3742 C.3          1    LIG   0.0000
  16 C16         -2.3939    -1.1120     3.5850 C.3          1    LIG   0.0000
  17 C17         -3.0354    -1.1965     4.9604 C.3          1    LIG   0.0000
  18 C18         -3.4389    -1.4016     2.5199 C.3          1    LIG   0.0000
  19 C19         -1.2725    -2.1333     3.4854 C.3          1    LIG   0.0000
  20 C20         -0.9041     0.6951     4.5127 C.3          1    LIG   0.0000
  21 C21          0.3946    -0.0831     4.3933 C.ar         1    LIG   0.0000
  22 C22          1.0210    -0.6622     5.4950 C.ar         1    LIG   0.0000
  23 C23          2.1932    -1.3978     5.3533 C.ar         1    LIG   0.0000
  24 C24          2.7581    -1.5548     4.0921 C.ar         1    LIG   0.0000
  25 C25          2.1303    -0.9582     3.0029 C.ar         1    LIG   0.0000
  26 C26          0.9557    -0.2192     3.1305 C.ar         1    LIG   0.0000
  27 C27          3.2860     2.1354     0.9957 C.2          1    LIG   0.0000
  28 C28          2.8500     3.5928     0.9901 C.3          1    LIG   0.0000
  29 C29          2.7070     4.0844     2.4213 C.3          1    LIG   0.0000
  30 O30          2.3001     5.4448     2.4161 O.3          1    LIG   0.0000
  31 C31          4.5570     1.6597     0.9958 C.2          1    LIG   0.0000
  32 O32          5.6856     2.4017     0.9930 O.3          1    LIG  -1.0000
  33 N33          5.5043    -1.7928     0.4480 N.ar         1    LIG   0.0000
  34 H           -2.6029     0.9166     3.3856 H            1    LIG   0.0000
  35 H            7.3054    -4.5211    -0.1020 H            1    LIG   0.0000
  36 H            5.7095    -4.5708     0.2404 H            1    LIG   0.0000
  37 H            6.2209    -3.9469    -1.1794 H            1    LIG   0.0000
  38 H            8.5025    -2.9011     1.0399 H            1    LIG   0.0000
  39 H            9.8055    -1.3622     2.1844 H            1    LIG   0.0000
  40 H            9.5028     0.2020     1.8262 H            1    LIG   0.0000
  41 H            8.9910    -0.4246     3.2447 H            1    LIG   0.0000
  42 H           -1.4785    -0.3594     1.4367 H            1    LIG   0.0000
  43 H           -1.4723     1.2668     1.5858 H            1    LIG   0.0000
  44 H           -3.4072    -2.1145     5.0990 H            1    LIG   0.0000
  45 H           -2.3479    -1.0061     5.6612 H            1    LIG   0.0000
  46 H           -3.7732    -0.5247     5.0260 H            1    LIG   0.0000
  47 H           -3.8107    -2.3195     2.6585 H            1    LIG   0.0000
  48 H           -4.1767    -0.7297     2.5854 H            1    LIG   0.0000
  49 H           -3.0169    -1.3460     1.6150 H            1    LIG   0.0000
  50 H           -1.6442    -3.0512     3.6240 H            1    LIG   0.0000
  51 H           -0.8504    -2.0777     2.5805 H            1    LIG   0.0000
  52 H           -0.5849    -1.9428     4.1861 H            1    LIG   0.0000
  53 H           -0.7151     1.6754     4.4551 H            1    LIG   0.0000
  54 H           -1.3392     0.4905     5.3895 H            1    LIG   0.0000
  55 H            0.6206    -0.5469     6.4041 H            1    LIG   0.0000
  56 H            2.6271    -1.8113     6.1537 H            1    LIG   0.0000
  57 H            3.5973    -2.0850     3.9707 H            1    LIG   0.0000
  58 H            2.5368    -1.0637     2.0954 H            1    LIG   0.0000
  59 H            1.9715     3.6762     0.5197 H            1    LIG   0.0000
  60 H            3.5360     4.1442     0.5153 H            1    LIG   0.0000
  61 H            2.0210     3.5331     2.8961 H            1    LIG   0.0000
  62 H            3.5855     4.0011     2.8917 H            1    LIG   0.0000
  63 H            2.2060     5.7682     3.3577 H            1    LIG   0.0000
@<TRIPOS>BOND
   1        1        2 1
   2        2        3 ar
   3        3        4 ar
   4        4        5 1
   5        4        6 ar
   6        6        7 ar
   7        7        8 1
   8        8        9 1
   9        9       10 2
  10       10       11 1
  11       11       12 2
  12       11       13 am
  13       13       14 1
  14       14       15 1
  15       15       16 1
  16       16       17 1
  17       16       18 1
  18       16       19 1
  19       15       20 1
  20       20       21 1
  21       21       22 ar
  22       22       23 ar
  23       23       24 ar
  24       24       25 ar
  25       25       26 ar
  26       26       21 ar
  27       26       13 1
  28       10       27 1
  29       27       28 1
  30       28       29 1
  31       29       30 1
  32       27       31 2
  33       31        8 1
  34       31       32 1
  35        7       33 ar
  36       33        2 ar
  37       15       34 1
  38        1       35 1
  39        1       36 1
  40        1       37 1
  41        3       38 1
  42        5       39 1
  43        5       40 1
  44        5       41 1
  45       14       42 1
  46       14       43 1
  47       17       44 1
  48       17       45 1
  49       17       46 1
  50       18       47 1
  51       18       48 1
  52       18       49 1
  53       19       50 1
  54       19       51 1
  55       19       52 1
  56       20       53 1
  57       20       54 1
  58       22       55 1
  59       23       56 1
  60       24       57 1
  61       25       58 1
  62       28       59 1
  63       28       60 1
  64       29       61 1
  65       29       62 1
  66       30       63 1

@<TRIPOS>MOLECULE

  63   66
SMALL
USER_CHARGES
@<TRIPOS>ATOM
   1 C1           7.7880    -2.3609    -1.4789 C.3          1    LIG   0.0000
   2 C2           7.1755    -1.8591    -0.1766 C.ar         1    LIG   0.0000
   3 C3           7.7179    -2.2811     1.0330 C.ar         1    LIG   0.0000
   4 C4           7.1741    -1.8338     2.2327 C.ar         1    LIG   0.0000
   5 C5           7.7818    -2.3103     3.5479 C.3          1    LIG   0.0000
   6 N6           6.1240    -0.9954     2.1688 N.ar         1    LIG   0.0000
   7 C7           5.5831    -0.5725     1.0110 C.ar         1    LIG   0.0000
   8 N8           4.4852     0.3047     1.0022 N.pl3        1    LIG   0.0000
   9 N9           3.2248    -0.0575     1.0041 N.2          1    LIG   0.0000
  10 C10          2.4498     1.0000     1.0000 C.2          1    LIG   0.0000
  11 C11          1.0000     1.0000     1.0000 C.2          1    LIG   0.0000
  12 O12          0.4000     1.5162     0.0980 O.2          1    LIG   0.0000
  13 N13          0.2971     0.3953     2.0566 N.am         1    LIG   0.0000
  14 C14         -1.1722     0.4533     2.0137 C.3          1    LIG   0.0000
  15 C15         -1.7348     0.7525     3.3950 C.3          1    LIG   0.0000
  16 C16         -3.2549     0.7370     3.3919 C.3          1    LIG   0.0000
  17 C17         -3.7675     1.0405     4.7903 C.3          1    LIG   0.0000
  18 C18         -3.7703     1.7895     2.4238 C.3          1    LIG   0.0000
  19 C19         -3.7467    -0.6343     2.9584 C.3          1    LIG   0.0000
  20 C20         -1.2627    -0.2929     4.3916 C.3          1    LIG   0.0000
  21 C21          0.2309    -0.5561     4.2921 C.ar         1    LIG   0.0000
  22 C22          0.8668    -1.1592     5.3729 C.ar         1    LIG   0.0000
  23 C23          2.2222    -1.4680     5.3174 C.ar         1    LIG   0.0000
  24 C24          2.9497    -1.1648     4.1718 C.ar         1    LIG   0.0000
  25 C25          2.3008    -0.5472     3.1039 C.ar         1    LIG   0.0000
  26 C26          0.9448    -0.2246     3.1400 C.ar         1    LIG   0.0000
  27 C27          3.2860     2.1354     0.9957 C.2          1    LIG   0.0000
  28 C28          2.8500     3.5928     0.9901 C.3          1    LIG   0.0000
  29 C29          2.7070     4.0844     2.4213 C.3          1    LIG   0.0000
  30 O30          2.3001     5.4448     2.4161 O.3          1    LIG   0.0000
  31 C31          4.5570     1.6597     0.9958 C.2          1    LIG   0.0000
  32 O32          5.6856     2.4017     0.9930 O.3          1    LIG  -1.0000
  33 N33          6.1268    -1.0196    -0.1365 N.ar         1    LIG   0.0000
  34 H           -1.4170     1.6535     3.6901 H            1    LIG   0.0000
  35 H            8.5532    -2.9713    -1.2739 H            1    LIG   0.0000
  36 H            7.0963    -2.8578    -2.0029 H            1    LIG   0.0000
  37 H            8.1166    -1.5828    -2.0143 H            1    LIG   0.0000
  38 H            8.4987    -2.9059     1.0400 H            1    LIG   0.0000
  39 H            8.5483    -2.9238     3.3580 H            1    LIG   0.0000
  40 H            8.1074    -1.5217     4.0696 H            1    LIG   0.0000
  41 H            7.0882    -2.7976     4.0783 H            1    LIG   0.0000
  42 H           -1.5271    -0.4265     1.6975 H            1    LIG   0.0000
  43 H           -1.4546     1.1738     1.3803 H            1    LIG   0.0000
  44 H           -4.7675     1.0303     4.7882 H            1    LIG   0.0000
  45 H           -3.4284     0.3481     5.4271 H            1    LIG   0.0000
  46 H           -3.4439     1.9427     5.0754 H            1    LIG   0.0000
  47 H           -4.7702     1.7793     2.4218 H            1    LIG   0.0000
  48 H           -3.4467     2.6917     2.7090 H            1    LIG   0.0000
  49 H           -3.4330     1.5898     1.5038 H            1    LIG   0.0000
  50 H           -4.7466    -0.6445     2.9563 H            1    LIG   0.0000
  51 H           -3.4094    -0.8339     2.0384 H            1    LIG   0.0000
  52 H           -3.4076    -1.3267     3.5953 H            1    LIG   0.0000
  53 H           -1.4715     0.0272     5.3157 H            1    LIG   0.0000
  54 H           -1.7517    -1.1474     4.2164 H            1    LIG   0.0000
  55 H            0.3440    -1.3729     6.1981 H            1    LIG   0.0000
  56 H            2.6707    -1.9055     6.0968 H            1    LIG   0.0000
  57 H            3.9232    -1.3863     4.1150 H            1    LIG   0.0000
  58 H            2.8267    -0.3277     2.2822 H            1    LIG   0.0000
  59 H            1.9715     3.6762     0.5197 H            1    LIG   0.0000
  60 H            3.5360     4.1442     0.5153 H            1    LIG   0.0000
  61 H            2.0210     3.5331     2.8961 H            1    LIG   0.0000
  62 H            3.5855     4.0011     2.8917 H            1    LIG   0.0000
  63 H            2.2060     5.7682     3.3577 H            1    LIG   0.0000
@<TRIPOS>BOND
   1        1        2 1
   2        2        3 ar
   3        3        4 ar
   4        4        5 1
   5        4        6 ar
   6        6        7 ar
   7        7        8 1
   8        8        9 1
   9        9       10 2
  10       10       11 1
  11       11       12 2
  12       11       13 am
  13       13       14 1
  14       14       15 1
  15       15       16 1
  16       16       17 1
  17       16       18 1
  18       16       19 1
  19       15       20 1
  20       20       21 1
  21       21       22 ar
  22       22       23 ar
  23       23       24 ar
  24       24       25 ar
  25       25       26 ar
  26       26       21 ar
  27       26       13 1
  28       10       27 1
  29       27       28 1
  30       28       29 1
  31       29       30 1
  32       27       31 2
  33       31        8 1
  34       31       32 1
  35        7       33 ar
  36       33        2 ar
  37       15       34 1
  38        1       35 1
  39        1       36 1
  40        1       37 1
  41        3       38 1
  42        5       39 1
  43        5       40 1
  44        5       41 1
  45       14       42 1
  46       14       43 1
  47       17       44 1
  48       17       45 1
  49       17       46 1
  50       18       47 1
  51       18       48 1
  52       18       49 1
  53       19       50 1
  54       19       51 1
  55       19       52 1
  56       20       53 1
  57       20       54 1
  58       22       55 1
  59       23       56 1
  60       24       57 1
  61       25       58 1
  62       28       59 1
  63       28       60 1
  64       29       61 1
  65       29       62 1
  66       30       63 1

