@<TRIPOS>MOLECULE
*****
 63 66 0 0 0
SMALL
USER_CHARGES

@<TRIPOS>ATOM
      1 C1          9.1441   -0.6512   -0.2431 C.3     1  LIG1        0.0000
      2 C2          7.8250   -1.0402    0.4140 C.3     1  LIG1        0.0000
      3 C3          7.7161   -2.2834    1.0287 C.3     1  LIG1        0.0000
      4 C4          6.5212   -2.6571    1.6350 C.3     1  LIG1        0.0000
      5 C5          6.4215   -4.0254    2.3012 C.3     1  LIG1        0.0000
      6 N6          5.5010   -1.7809    1.5984 N.pl3   1  LIG1        0.0000
      7 C7          5.5831   -0.5725    1.0110 C.3     1  LIG1        0.0000
      8 N8          4.4852    0.3047    1.0022 N.pl3   1  LIG1        0.0000
      9 N9          3.2248   -0.0575    1.0041 N.2     1  LIG1        0.0000
     10 C10         2.4498    1.0000    1.0000 C.2     1  LIG1        0.0000
     11 C11         1.0000    1.0000    1.0000 C.2     1  LIG1        0.0000
     12 O12         0.4000    1.5162    0.0980 O.2     1  LIG1        0.0000
     13 N13         0.2997    0.3975    2.0528 N.am    1  LIG1        0.0000
     14 C14        -1.1720    0.4301    2.0225 C.3     1  LIG1        0.0000
     15 C15        -1.8111   -0.6751    2.8527 C.3     1  LIG1        0.0000
     16 C16        -3.0793   -1.1360    2.1519 C.3     1  LIG1        0.0000
     17 C17        -3.7345   -2.2408    2.9647 C.3     1  LIG1        0.0000
     18 C18        -4.0400    0.0346    2.0212 C.3     1  LIG1        0.0000
     19 C19        -2.7313   -1.6626    0.7692 C.3     1  LIG1        0.0000
     20 C20        -0.9047   -1.8819    3.0543 C.3     1  LIG1        0.0000
     21 C21         0.3942   -1.3776    3.6625 C.3     1  LIG1        0.0000
     22 C22         1.0024   -2.0470    4.7204 C.3     1  LIG1        0.0000
     23 C23         2.1748   -1.5378    5.2694 C.3     1  LIG1        0.0000
     24 C24         2.7496   -0.3740    4.7704 C.3     1  LIG1        0.0000
     25 C25         2.1262    0.2652    3.7035 C.3     1  LIG1        0.0000
     26 C26         0.9511   -0.2203    3.1325 C.3     1  LIG1        0.0000
     27 C27         3.2860    2.1354    0.9957 C.2     1  LIG1        0.0000
     28 C28         2.8500    3.5928    0.9901 C.3     1  LIG1        0.0000
     29 C29         2.7026    4.0721   -0.4448 C.3     1  LIG1        0.0000
     30 O30         2.2956    5.4325   -0.4500 O.3     1  LIG1        0.0000
     31 C31         4.5570    1.6597    0.9958 C.2     1  LIG1        0.0000
     32 O32         5.6856    2.4017    0.9930 O.2     1  LIG1       -1.0000
     33 N33         6.7499   -0.2341    0.4309 N.pl3   1  LIG1        0.0000
     34 H          -2.0557   -0.3037    3.7484 H       1  LIG1        0.0000
     35 H           9.8021   -1.3967   -0.1369 H       1  LIG1        0.0000
     36 H           8.9930   -0.4760   -1.2159 H       1  LIG1        0.0000
     37 H           9.5028    0.1744    0.1925 H       1  LIG1        0.0000
     38 H           8.4967   -2.9084    1.0347 H       1  LIG1        0.0000
     39 H           7.2938   -4.5055    2.2086 H       1  LIG1        0.0000
     40 H           6.2063   -3.9091    3.2708 H       1  LIG1        0.0000
     41 H           5.6991   -4.5586    1.8610 H       1  LIG1        0.0000
     42 H          -1.4731    0.3304    1.0742 H       1  LIG1        0.0000
     43 H          -1.4782    1.3131    2.3784 H       1  LIG1        0.0000
     44 H          -4.5685   -2.5439    2.5038 H       1  LIG1        0.0000
     45 H          -3.1024   -3.0109    3.0507 H       1  LIG1        0.0000
     46 H          -3.9634   -1.8943    3.8744 H       1  LIG1        0.0000
     47 H          -4.8741   -0.2685    1.5603 H       1  LIG1        0.0000
     48 H          -4.2690    0.3811    2.9309 H       1  LIG1        0.0000
     49 H          -3.6090    0.7615    1.4865 H       1  LIG1        0.0000
     50 H          -3.5653   -1.9657    0.3083 H       1  LIG1        0.0000
     51 H          -2.3003   -0.9358    0.2344 H       1  LIG1        0.0000
     52 H          -2.0992   -2.4328    0.8552 H       1  LIG1        0.0000
     53 H          -1.3398   -2.5370    3.6721 H       1  LIG1        0.0000
     54 H          -0.7222   -2.3230    2.1756 H       1  LIG1        0.0000
     55 H           0.5998   -2.8875    5.0829 H       1  LIG1        0.0000
     56 H           2.6100   -2.0150    6.0329 H       1  LIG1        0.0000
     57 H           3.5898   -0.0057    5.1686 H       1  LIG1        0.0000
     58 H           2.5346    1.1000    3.3342 H       1  LIG1        0.0000
     59 H           3.5374    4.1482    1.4581 H       1  LIG1        0.0000
     60 H           1.9729    3.6802    1.4625 H       1  LIG1        0.0000
     61 H           3.5796    3.9847   -0.9172 H       1  LIG1        0.0000
     62 H           2.0151    3.5167   -0.9128 H       1  LIG1        0.0000
     63 H           2.1986    5.7478   -1.3940 H       1  LIG1        0.0000
@<TRIPOS>UNITY_ATOM_ATTR
32 1
charge -1
@<TRIPOS>BOND
     1     1     2    1
     2     2     3   ar
     3     3     4   ar
     4     4     5    1
     5     4     6   ar
     6     6     7   ar
     7     7     8    1
     8     8     9    1
     9     9    10    2
    10    10    11    1
    11    11    12    2
    12    11    13   am
    13    13    14    1
    14    14    15    1
    15    15    16    1
    16    16    17    1
    17    16    18    1
    18    16    19    1
    19    15    20    1
    20    20    21    1
    21    21    22   ar
    22    22    23   ar
    23    23    24   ar
    24    24    25   ar
    25    25    26   ar
    26    26    21   ar
    27    26    13    1
    28    10    27    1
    29    27    28    1
    30    28    29    1
    31    29    30    1
    32    27    31    2
    33    31     8    1
    34    31    32    1
    35     7    33   ar
    36    33     2   ar
    37    15    34    1
    38     1    35    1
    39     1    36    1
    40     1    37    1
    41     3    38    1
    42     5    39    1
    43     5    40    1
    44     5    41    1
    45    14    42    1
    46    14    43    1
    47    17    44    1
    48    17    45    1
    49    17    46    1
    50    18    47    1
    51    18    48    1
    52    18    49    1
    53    19    50    1
    54    19    51    1
    55    19    52    1
    56    20    53    1
    57    20    54    1
    58    22    55    1
    59    23    56    1
    60    24    57    1
    61    25    58    1
    62    28    59    1
    63    28    60    1
    64    29    61    1
    65    29    62    1
    66    30    63    1
