@<TRIPOS>MOLECULE
*****
 63 66 0 0 0
SMALL
USER_CHARGES

@<TRIPOS>ATOM
      1 C1          6.2231    3.6900    5.5598 C.3     1  LIG1        0.0000
      2 C2          6.4271    2.9221    4.2591 C.3     1  LIG1        0.0000
      3 C3          7.7222    2.6643    3.8216 C.3     1  LIG1        0.0000
      4 C4          7.9298    1.9641    2.6376 C.3     1  LIG1        0.0000
      5 C5          9.3575    1.6940    2.1741 C.3     1  LIG1        0.0000
      6 N6          6.8452    1.5594    1.9525 N.pl3   1  LIG1        0.0000
      7 C7          5.5831    1.7958    2.3563 C.3     1  LIG1        0.0000
      8 N8          4.4852    1.3495    1.6010 N.pl3   1  LIG1        0.0000
      9 N9          3.2248    1.5323    1.9138 N.2     1  LIG1        0.0000
     10 C10         2.4498    1.0000    1.0000 C.2     1  LIG1        0.0000
     11 C11         1.0000    1.0000    1.0000 C.2     1  LIG1        0.0000
     12 O12         0.4000    1.5162    0.0980 O.2     1  LIG1        0.0000
     13 N13         0.2997    0.3975    2.0528 N.am    1  LIG1        0.0000
     14 C14        -1.1720    0.4301    2.0225 C.3     1  LIG1        0.0000
     15 C15        -1.8111   -0.6751    2.8527 C.3     1  LIG1        0.0000
     16 C16        -3.0793   -1.1360    2.1519 C.3     1  LIG1        0.0000
     17 C17        -3.7345   -2.2408    2.9647 C.3     1  LIG1        0.0000
     18 C18        -4.0400    0.0346    2.0212 C.3     1  LIG1        0.0000
     19 C19        -2.7313   -1.6626    0.7692 C.3     1  LIG1        0.0000
     20 C20        -0.9047   -1.8819    3.0543 C.3     1  LIG1        0.0000
     21 C21         0.3942   -1.3776    3.6625 C.3     1  LIG1        0.0000
     22 C22         1.0024   -2.0470    4.7204 C.3     1  LIG1        0.0000
     23 C23         2.1748   -1.5378    5.2694 C.3     1  LIG1        0.0000
     24 C24         2.7496   -0.3740    4.7704 C.3     1  LIG1        0.0000
     25 C25         2.1262    0.2652    3.7035 C.3     1  LIG1        0.0000
     26 C26         0.9511   -0.2203    3.1325 C.3     1  LIG1        0.0000
     27 C27         3.2860    0.4286    0.0189 C.2     1  LIG1        0.0000
     28 C28         2.8500   -0.3050   -1.2405 C.3     1  LIG1        0.0000
     29 C29         2.7026   -1.7873   -0.9381 C.3     1  LIG1        0.0000
     30 O30         2.2956   -2.4720   -2.1137 O.3     1  LIG1        0.0000
     31 C31         4.5570    0.6665    0.4308 C.2     1  LIG1        0.0000
     32 O32         5.6856    0.2931   -0.2104 O.2     1  LIG1       -1.0000
     33 N33         5.4082    2.4756    3.5051 N.pl3   1  LIG1        0.0000
     34 H          -2.0557   -0.3037    3.7484 H       1  LIG1        0.0000
     35 H           7.1129    3.9230    5.9524 H       1  LIG1        0.0000
     36 H           5.7105    4.5284    5.3751 H       1  LIG1        0.0000
     37 H           5.7123    3.1223    6.2054 H       1  LIG1        0.0000
     38 H           8.5039    2.9823    4.3581 H       1  LIG1        0.0000
     39 H          10.0012    2.0828    2.8333 H       1  LIG1        0.0000
     40 H           9.5049    0.7073    2.1064 H       1  LIG1        0.0000
     41 H           9.5025    2.1149    1.2787 H       1  LIG1        0.0000
     42 H          -1.4731    0.3304    1.0742 H       1  LIG1        0.0000
     43 H          -1.4782    1.3131    2.3784 H       1  LIG1        0.0000
     44 H          -4.5685   -2.5439    2.5038 H       1  LIG1        0.0000
     45 H          -3.1024   -3.0109    3.0507 H       1  LIG1        0.0000
     46 H          -3.9634   -1.8943    3.8744 H       1  LIG1        0.0000
     47 H          -4.8741   -0.2685    1.5603 H       1  LIG1        0.0000
     48 H          -4.2690    0.3811    2.9309 H       1  LIG1        0.0000
     49 H          -3.6090    0.7615    1.4865 H       1  LIG1        0.0000
     50 H          -3.5653   -1.9657    0.3083 H       1  LIG1        0.0000
     51 H          -2.3003   -0.9358    0.2344 H       1  LIG1        0.0000
     52 H          -2.0992   -2.4328    0.8552 H       1  LIG1        0.0000
     53 H          -1.3398   -2.5370    3.6721 H       1  LIG1        0.0000
     54 H          -0.7222   -2.3230    2.1756 H       1  LIG1        0.0000
     55 H           0.5998   -2.8875    5.0829 H       1  LIG1        0.0000
     56 H           2.6100   -2.0150    6.0329 H       1  LIG1        0.0000
     57 H           3.5898   -0.0057    5.1686 H       1  LIG1        0.0000
     58 H           2.5346    1.1000    3.3342 H       1  LIG1        0.0000
     59 H           3.5374   -0.1774   -1.9555 H       1  LIG1        0.0000
     60 H           1.9729    0.0604   -1.5524 H       1  LIG1        0.0000
     61 H           3.5796   -2.1527   -0.6262 H       1  LIG1        0.0000
     62 H           2.0151   -1.9149   -0.2232 H       1  LIG1        0.0000
     63 H           2.1986   -3.4472   -1.9147 H       1  LIG1        0.0000
@<TRIPOS>UNITY_ATOM_ATTR
32 1
charge -1
@<TRIPOS>BOND
     1     1     2    1
     2     2     3   ar
     3     3     4   ar
     4     4     5    1
     5     4     6   ar
     6     6     7   ar
     7     7     8    1
     8     8     9    1
     9     9    10    2
    10    10    11    1
    11    11    12    2
    12    11    13   am
    13    13    14    1
    14    14    15    1
    15    15    16    1
    16    16    17    1
    17    16    18    1
    18    16    19    1
    19    15    20    1
    20    20    21    1
    21    21    22   ar
    22    22    23   ar
    23    23    24   ar
    24    24    25   ar
    25    25    26   ar
    26    26    21   ar
    27    26    13    1
    28    10    27    1
    29    27    28    1
    30    28    29    1
    31    29    30    1
    32    27    31    2
    33    31     8    1
    34    31    32    1
    35     7    33   ar
    36    33     2   ar
    37    15    34    1
    38     1    35    1
    39     1    36    1
    40     1    37    1
    41     3    38    1
    42     5    39    1
    43     5    40    1
    44     5    41    1
    45    14    42    1
    46    14    43    1
    47    17    44    1
    48    17    45    1
    49    17    46    1
    50    18    47    1
    51    18    48    1
    52    18    49    1
    53    19    50    1
    54    19    51    1
    55    19    52    1
    56    20    53    1
    57    20    54    1
    58    22    55    1
    59    23    56    1
    60    24    57    1
    61    25    58    1
    62    28    59    1
    63    28    60    1
    64    29    61    1
    65    29    62    1
    66    30    63    1
