@<TRIPOS>MOLECULE
*****
 63 66 0 0 0
SMALL
USER_CHARGES

@<TRIPOS>ATOM
      1 C1          7.7880   -2.3609   -1.4789 C.3     1  LIG1        0.0000
      2 C2          7.1755   -1.8591   -0.1766 C.3     1  LIG1        0.0000
      3 C3          7.7179   -2.2811    1.0330 C.3     1  LIG1        0.0000
      4 C4          7.1741   -1.8338    2.2327 C.3     1  LIG1        0.0000
      5 C5          7.7818   -2.3103    3.5479 C.3     1  LIG1        0.0000
      6 N6          6.1240   -0.9954    2.1688 N.pl3   1  LIG1        0.0000
      7 C7          5.5831   -0.5725    1.0110 C.3     1  LIG1        0.0000
      8 N8          4.4852    0.3047    1.0022 N.pl3   1  LIG1        0.0000
      9 N9          3.2248   -0.0575    1.0041 N.2     1  LIG1        0.0000
     10 C10         2.4498    1.0000    1.0000 C.2     1  LIG1        0.0000
     11 C11         1.0000    1.0000    1.0000 C.2     1  LIG1        0.0000
     12 O12         0.4000    1.5162    0.0980 O.2     1  LIG1        0.0000
     13 N13         0.2971    0.3953    2.0566 N.am    1  LIG1        0.0000
     14 C14        -1.1722    0.4533    2.0137 C.3     1  LIG1        0.0000
     15 C15        -1.7348    0.7525    3.3950 C.3     1  LIG1        0.0000
     16 C16        -3.2549    0.7370    3.3919 C.3     1  LIG1        0.0000
     17 C17        -3.7675    1.0405    4.7903 C.3     1  LIG1        0.0000
     18 C18        -3.7703    1.7895    2.4238 C.3     1  LIG1        0.0000
     19 C19        -3.7467   -0.6343    2.9584 C.3     1  LIG1        0.0000
     20 C20        -1.2627   -0.2929    4.3916 C.3     1  LIG1        0.0000
     21 C21         0.2309   -0.5561    4.2921 C.3     1  LIG1        0.0000
     22 C22         0.8668   -1.1592    5.3729 C.3     1  LIG1        0.0000
     23 C23         2.2222   -1.4680    5.3174 C.3     1  LIG1        0.0000
     24 C24         2.9497   -1.1648    4.1718 C.3     1  LIG1        0.0000
     25 C25         2.3008   -0.5472    3.1039 C.3     1  LIG1        0.0000
     26 C26         0.9448   -0.2246    3.1400 C.3     1  LIG1        0.0000
     27 C27         3.2860    2.1354    0.9957 C.2     1  LIG1        0.0000
     28 C28         2.8500    3.5928    0.9901 C.3     1  LIG1        0.0000
     29 C29         2.7070    4.0844    2.4213 C.3     1  LIG1        0.0000
     30 O30         2.3001    5.4448    2.4161 O.3     1  LIG1        0.0000
     31 C31         4.5570    1.6597    0.9958 C.2     1  LIG1        0.0000
     32 O32         5.6856    2.4017    0.9930 O.2     1  LIG1       -1.0000
     33 N33         6.1268   -1.0196   -0.1365 N.pl3   1  LIG1        0.0000
     34 H          -1.4170    1.6535    3.6901 H       1  LIG1        0.0000
     35 H           8.5532   -2.9713   -1.2739 H       1  LIG1        0.0000
     36 H           7.0963   -2.8578   -2.0029 H       1  LIG1        0.0000
     37 H           8.1166   -1.5828   -2.0143 H       1  LIG1        0.0000
     38 H           8.4987   -2.9059    1.0400 H       1  LIG1        0.0000
     39 H           8.5483   -2.9238    3.3580 H       1  LIG1        0.0000
     40 H           8.1074   -1.5217    4.0696 H       1  LIG1        0.0000
     41 H           7.0882   -2.7976    4.0783 H       1  LIG1        0.0000
     42 H          -1.5271   -0.4265    1.6975 H       1  LIG1        0.0000
     43 H          -1.4546    1.1738    1.3803 H       1  LIG1        0.0000
     44 H          -4.7675    1.0303    4.7882 H       1  LIG1        0.0000
     45 H          -3.4284    0.3481    5.4271 H       1  LIG1        0.0000
     46 H          -3.4439    1.9427    5.0754 H       1  LIG1        0.0000
     47 H          -4.7702    1.7793    2.4218 H       1  LIG1        0.0000
     48 H          -3.4467    2.6917    2.7090 H       1  LIG1        0.0000
     49 H          -3.4330    1.5898    1.5038 H       1  LIG1        0.0000
     50 H          -4.7466   -0.6445    2.9563 H       1  LIG1        0.0000
     51 H          -3.4094   -0.8339    2.0384 H       1  LIG1        0.0000
     52 H          -3.4076   -1.3267    3.5953 H       1  LIG1        0.0000
     53 H          -1.4715    0.0272    5.3157 H       1  LIG1        0.0000
     54 H          -1.7517   -1.1474    4.2164 H       1  LIG1        0.0000
     55 H           0.3440   -1.3729    6.1981 H       1  LIG1        0.0000
     56 H           2.6707   -1.9055    6.0968 H       1  LIG1        0.0000
     57 H           3.9232   -1.3863    4.1150 H       1  LIG1        0.0000
     58 H           2.8267   -0.3277    2.2822 H       1  LIG1        0.0000
     59 H           1.9715    3.6762    0.5197 H       1  LIG1        0.0000
     60 H           3.5360    4.1442    0.5153 H       1  LIG1        0.0000
     61 H           2.0210    3.5331    2.8961 H       1  LIG1        0.0000
     62 H           3.5855    4.0011    2.8917 H       1  LIG1        0.0000
     63 H           2.2060    5.7682    3.3577 H       1  LIG1        0.0000
@<TRIPOS>UNITY_ATOM_ATTR
32 1
charge -1
@<TRIPOS>BOND
     1     1     2    1
     2     2     3   ar
     3     3     4   ar
     4     4     5    1
     5     4     6   ar
     6     6     7   ar
     7     7     8    1
     8     8     9    1
     9     9    10    2
    10    10    11    1
    11    11    12    2
    12    11    13   am
    13    13    14    1
    14    14    15    1
    15    15    16    1
    16    16    17    1
    17    16    18    1
    18    16    19    1
    19    15    20    1
    20    20    21    1
    21    21    22   ar
    22    22    23   ar
    23    23    24   ar
    24    24    25   ar
    25    25    26   ar
    26    26    21   ar
    27    26    13    1
    28    10    27    1
    29    27    28    1
    30    28    29    1
    31    29    30    1
    32    27    31    2
    33    31     8    1
    34    31    32    1
    35     7    33   ar
    36    33     2   ar
    37    15    34    1
    38     1    35    1
    39     1    36    1
    40     1    37    1
    41     3    38    1
    42     5    39    1
    43     5    40    1
    44     5    41    1
    45    14    42    1
    46    14    43    1
    47    17    44    1
    48    17    45    1
    49    17    46    1
    50    18    47    1
    51    18    48    1
    52    18    49    1
    53    19    50    1
    54    19    51    1
    55    19    52    1
    56    20    53    1
    57    20    54    1
    58    22    55    1
    59    23    56    1
    60    24    57    1
    61    25    58    1
    62    28    59    1
    63    28    60    1
    64    29    61    1
    65    29    62    1
    66    30    63    1
