@<TRIPOS>MOLECULE
*****
 63 66 0 0 0
SMALL
USER_CHARGES

@<TRIPOS>ATOM
      1 C1          7.7880   -2.3609   -1.4789 C.3     1  LIG1        0.0000
      2 C2          7.1755   -1.8591   -0.1766 C.3     1  LIG1        0.0000
      3 C3          7.7179   -2.2811    1.0330 C.3     1  LIG1        0.0000
      4 C4          7.1741   -1.8338    2.2327 C.3     1  LIG1        0.0000
      5 C5          7.7818   -2.3103    3.5479 C.3     1  LIG1        0.0000
      6 N6          6.1240   -0.9954    2.1688 N.pl3   1  LIG1        0.0000
      7 C7          5.5831   -0.5725    1.0110 C.3     1  LIG1        0.0000
      8 N8          4.4852    0.3047    1.0022 N.pl3   1  LIG1        0.0000
      9 N9          3.2248   -0.0575    1.0041 N.2     1  LIG1        0.0000
     10 C10         2.4498    1.0000    1.0000 C.2     1  LIG1        0.0000
     11 C11         1.0000    1.0000    1.0000 C.2     1  LIG1        0.0000
     12 O12         0.4000    1.5162    0.0980 O.2     1  LIG1        0.0000
     13 N13         0.2994    0.3973    2.0532 N.am    1  LIG1        0.0000
     14 C14         1.0794   -0.2106    3.1485 C.3     1  LIG1        0.0000
     15 C15         0.3217   -1.3009    3.8974 C.3     1  LIG1        0.0000
     16 C16        -0.1545   -0.8008    5.2527 C.3     1  LIG1        0.0000
     17 C17        -0.9040   -1.9129    5.9683 C.3     1  LIG1        0.0000
     18 C18         1.0440   -0.3792    6.0870 C.3     1  LIG1        0.0000
     19 C19        -1.0796    0.3893    5.0572 C.3     1  LIG1        0.0000
     20 C20        -0.8194   -1.8983    3.0849 C.3     1  LIG1        0.0000
     21 C21        -1.7138   -0.7723    2.5965 C.3     1  LIG1        0.0000
     22 C22        -3.1042   -0.8505    2.6433 C.3     1  LIG1        0.0000
     23 C23        -3.9001    0.2088    2.2194 C.3     1  LIG1        0.0000
     24 C24        -3.3022    1.3662    1.7324 C.3     1  LIG1        0.0000
     25 C25        -1.9130    1.4246    1.6770 C.3     1  LIG1        0.0000
     26 C26        -1.1036    0.3714    2.0985 C.3     1  LIG1        0.0000
     27 C27         3.2860    2.1354    0.9957 C.2     1  LIG1        0.0000
     28 C28         2.8500    3.5928    0.9901 C.3     1  LIG1        0.0000
     29 C29         2.7026    4.0721   -0.4448 C.3     1  LIG1        0.0000
     30 O30         2.2956    5.4325   -0.4500 O.3     1  LIG1        0.0000
     31 C31         4.5570    1.6597    0.9958 C.2     1  LIG1        0.0000
     32 O32         5.6856    2.4017    0.9930 O.2     1  LIG1       -1.0000
     33 N33         6.1268   -1.0196   -0.1365 N.pl3   1  LIG1        0.0000
     34 H           0.9724   -2.0398    4.0721 H       1  LIG1        0.0000
     35 H           8.5532   -2.9713   -1.2739 H       1  LIG1        0.0000
     36 H           7.0963   -2.8578   -2.0029 H       1  LIG1        0.0000
     37 H           8.1166   -1.5828   -2.0143 H       1  LIG1        0.0000
     38 H           8.4987   -2.9059    1.0400 H       1  LIG1        0.0000
     39 H           8.5483   -2.9238    3.3580 H       1  LIG1        0.0000
     40 H           8.1074   -1.5217    4.0696 H       1  LIG1        0.0000
     41 H           7.0882   -2.7976    4.0783 H       1  LIG1        0.0000
     42 H           1.3263    0.5079    3.7987 H       1  LIG1        0.0000
     43 H           1.9106   -0.6103    2.7620 H       1  LIG1        0.0000
     44 H          -1.2171   -1.5842    6.8593 H       1  LIG1        0.0000
     45 H          -1.6925   -2.1903    5.4194 H       1  LIG1        0.0000
     46 H          -0.2954   -2.6959    6.0969 H       1  LIG1        0.0000
     47 H           0.7309   -0.0505    6.9780 H       1  LIG1        0.0000
     48 H           1.6526   -1.1622    6.2156 H       1  LIG1        0.0000
     49 H           1.5371    0.3524    5.6162 H       1  LIG1        0.0000
     50 H          -1.3927    0.7180    5.9482 H       1  LIG1        0.0000
     51 H          -0.5866    1.1209    4.5864 H       1  LIG1        0.0000
     52 H          -1.8682    0.1119    4.5083 H       1  LIG1        0.0000
     53 H          -0.4490   -2.3974    2.3015 H       1  LIG1        0.0000
     54 H          -1.3489   -2.5236    3.6583 H       1  LIG1        0.0000
     55 H          -3.5377   -1.6831    2.9878 H       1  LIG1        0.0000
     56 H          -4.8966    0.1384    2.2646 H       1  LIG1        0.0000
     57 H          -3.8585    2.1397    1.4286 H       1  LIG1        0.0000
     58 H          -1.4795    2.2528    1.3217 H       1  LIG1        0.0000
     59 H           3.5374    4.1482    1.4581 H       1  LIG1        0.0000
     60 H           1.9729    3.6802    1.4625 H       1  LIG1        0.0000
     61 H           3.5796    3.9847   -0.9172 H       1  LIG1        0.0000
     62 H           2.0151    3.5167   -0.9128 H       1  LIG1        0.0000
     63 H           2.1986    5.7478   -1.3940 H       1  LIG1        0.0000
@<TRIPOS>UNITY_ATOM_ATTR
32 1
charge -1
@<TRIPOS>BOND
     1     1     2    1
     2     2     3   ar
     3     3     4   ar
     4     4     5    1
     5     4     6   ar
     6     6     7   ar
     7     7     8    1
     8     8     9    1
     9     9    10    2
    10    10    11    1
    11    11    12    2
    12    11    13   am
    13    13    14    1
    14    14    15    1
    15    15    16    1
    16    16    17    1
    17    16    18    1
    18    16    19    1
    19    15    20    1
    20    20    21    1
    21    21    22   ar
    22    22    23   ar
    23    23    24   ar
    24    24    25   ar
    25    25    26   ar
    26    26    21   ar
    27    26    13    1
    28    10    27    1
    29    27    28    1
    30    28    29    1
    31    29    30    1
    32    27    31    2
    33    31     8    1
    34    31    32    1
    35     7    33   ar
    36    33     2   ar
    37    15    34    1
    38     1    35    1
    39     1    36    1
    40     1    37    1
    41     3    38    1
    42     5    39    1
    43     5    40    1
    44     5    41    1
    45    14    42    1
    46    14    43    1
    47    17    44    1
    48    17    45    1
    49    17    46    1
    50    18    47    1
    51    18    48    1
    52    18    49    1
    53    19    50    1
    54    19    51    1
    55    19    52    1
    56    20    53    1
    57    20    54    1
    58    22    55    1
    59    23    56    1
    60    24    57    1
    61    25    58    1
    62    28    59    1
    63    28    60    1
    64    29    61    1
    65    29    62    1
    66    30    63    1
