@<TRIPOS>MOLECULE

  26   26
SMALL
USER_CHARGES
@<TRIPOS>ATOM
   1 O1           5.9350     2.3358     1.1176 O.co2        1    LIG   0.0000
   2 C2           5.4394     2.9397     2.0933 C.2          1    LIG   0.0000
   3 O3           6.1388     3.6380     2.7914 O.co2        1    LIG  -1.0000
   4 C4           4.0266     2.8035     2.3886 C.ar         1    LIG   0.0000
   5 C5           3.2305     1.9987     1.5807 C.ar         1    LIG   0.0000
   6 C6           1.8773     1.8773     1.8773 C.ar         1    LIG   0.0000
   7 C7           1.0000     1.0000     1.0000 C.3          1    LIG   0.0000
   8 C8           0.4223     1.8328    -0.1327 C.3          1    LIG   0.0000
   9 C9          -0.4552     0.9553    -1.0103 C.3          1    LIG   0.0000
  10 F10         -1.2231     0.1874    -0.2424 F            1    LIG   0.0000
  11 F11         -1.2231     1.7231    -1.7782 F            1    LIG   0.0000
  12 F12          0.3126     0.1874    -1.7782 F            1    LIG   0.0000
  13 C13          1.3167     2.5437     2.9617 C.ar         1    LIG   0.0000
  14 C14          2.1345     3.3425     3.7539 C.ar         1    LIG   0.0000
  15 C15          1.5319     4.0755     4.9408 C.3          1    LIG   0.0000
  16 F16          0.2272     3.8243     5.0011 F            1    LIG   0.0000
  17 F17          2.1156     3.6601     6.0613 F            1    LIG   0.0000
  18 F18          1.7254     5.3837     4.7988 F            1    LIG   0.0000
  19 C19          3.4905     3.4810     3.4787 C.ar         1    LIG   0.0000
  20 H            3.6247     1.5152     0.7992 H            1    LIG   0.0000
  21 H            0.2548     0.6200     1.5479 H            1    LIG   0.0000
  22 H            1.5479     0.2548     0.6200 H            1    LIG   0.0000
  23 H           -0.1256     2.5781     0.2473 H            1    LIG   0.0000
  24 H            1.1676     2.2129    -0.6807 H            1    LIG   0.0000
  25 H            0.3427     2.4503     3.1682 H            1    LIG   0.0000
  26 H            4.0702     4.0577     4.0545 H            1    LIG   0.0000
@<TRIPOS>BOND
   1        1        2 ar
   2        2        3 ar
   3        2        4 1
   4        4        5 ar
   5        5        6 ar
   6        6        7 1
   7        7        8 1
   8        8        9 1
   9        9       10 1
  10        9       11 1
  11        9       12 1
  12        6       13 ar
  13       13       14 ar
  14       14       15 1
  15       15       16 1
  16       15       17 1
  17       15       18 1
  18       14       19 ar
  19       19        4 ar
  20        5       20 1
  21        7       21 1
  22        7       22 1
  23        8       23 1
  24        8       24 1
  25       13       25 1
  26       19       26 1

@<TRIPOS>MOLECULE

  26   26
SMALL
USER_CHARGES
@<TRIPOS>ATOM
   1 O1           5.5448     3.4622     0.5988 O.co2        1    LIG   0.0000
   2 C2           4.9340     3.9795     1.5590 C.2          1    LIG   0.0000
   3 O3           5.3066     5.0369     2.0141 O.co2        1    LIG  -1.0000
   4 C4           3.7791     3.3124     2.1272 C.ar         1    LIG   0.0000
   5 C5           2.9811     2.5113     1.3174 C.ar         1    LIG   0.0000
   6 C6           1.8773     1.8773     1.8773 C.ar         1    LIG   0.0000
   7 C7           1.0000     1.0000     1.0000 C.3          1    LIG   0.0000
   8 C8           0.4223     1.8328    -0.1327 C.3          1    LIG   0.0000
   9 C9          -0.9309     1.2703    -0.5362 C.3          1    LIG   0.0000
  10 F10         -1.6359     0.9858     0.5551 F            1    LIG   0.0000
  11 F11         -1.5855     2.1698    -1.2650 F            1    LIG   0.0000
  12 F12         -0.7552     0.1629    -1.2516 F            1    LIG   0.0000
  13 C13          1.5656     2.0327     3.2238 C.ar         1    LIG   0.0000
  14 C14          2.3796     2.8395     4.0119 C.ar         1    LIG   0.0000
  15 C15          2.0475     3.0165     5.4842 C.3          1    LIG   0.0000
  16 F16          0.7944     2.6297     5.7057 F            1    LIG   0.0000
  17 F17          2.8756     2.2778     6.2174 F            1    LIG   0.0000
  18 F18          2.1819     4.2968     5.8182 F            1    LIG   0.0000
  19 C19          3.4889     3.4848     3.4766 C.ar         1    LIG   0.0000
  20 H            3.1977     2.3931     0.3484 H            1    LIG   0.0000
  21 H            0.2548     0.6200     1.5479 H            1    LIG   0.0000
  22 H            1.5479     0.2548     0.6200 H            1    LIG   0.0000
  23 H            0.3127     2.7791     0.1716 H            1    LIG   0.0000
  24 H            1.0423     1.8046    -0.9169 H            1    LIG   0.0000
  25 H            0.7702     1.5725     3.6183 H            1    LIG   0.0000
  26 H            4.0680     4.0626     4.0517 H            1    LIG   0.0000
@<TRIPOS>BOND
   1        1        2 ar
   2        2        3 ar
   3        2        4 1
   4        4        5 ar
   5        5        6 ar
   6        6        7 1
   7        7        8 1
   8        8        9 1
   9        9       10 1
  10        9       11 1
  11        9       12 1
  12        6       13 ar
  13       13       14 ar
  14       14       15 1
  15       15       16 1
  16       15       17 1
  17       15       18 1
  18       14       19 ar
  19       19        4 ar
  20        5       20 1
  21        7       21 1
  22        7       22 1
  23        8       23 1
  24        8       24 1
  25       13       25 1
  26       19       26 1

@<TRIPOS>MOLECULE

  26   26
SMALL
USER_CHARGES
@<TRIPOS>ATOM
   1 O1           5.5448     3.4622     0.5988 O.co2        1    LIG   0.0000
   2 C2           4.9340     3.9795     1.5590 C.2          1    LIG   0.0000
   3 O3           5.3066     5.0369     2.0141 O.co2        1    LIG  -1.0000
   4 C4           3.7791     3.3124     2.1272 C.ar         1    LIG   0.0000
   5 C5           2.9811     2.5113     1.3174 C.ar         1    LIG   0.0000
   6 C6           1.8773     1.8773     1.8773 C.ar         1    LIG   0.0000
   7 C7           1.0000     1.0000     1.0000 C.3          1    LIG   0.0000
   8 C8           0.4223     1.8328    -0.1327 C.3          1    LIG   0.0000
   9 C9           0.2040     0.9498    -1.3505 C.3          1    LIG   0.0000
  10 F10         -0.3496    -0.1987    -0.9718 F            1    LIG   0.0000
  11 F11         -0.6022     1.5689    -2.2082 F            1    LIG   0.0000
  12 F12          1.3726     0.7065    -1.9370 F            1    LIG   0.0000
  13 C13          1.5656     2.0327     3.2238 C.ar         1    LIG   0.0000
  14 C14          2.3796     2.8395     4.0119 C.ar         1    LIG   0.0000
  15 C15          2.0475     3.0165     5.4842 C.3          1    LIG   0.0000
  16 F16          0.7944     2.6297     5.7057 F            1    LIG   0.0000
  17 F17          2.8756     2.2778     6.2174 F            1    LIG   0.0000
  18 F18          2.1819     4.2968     5.8182 F            1    LIG   0.0000
  19 C19          3.4889     3.4848     3.4766 C.ar         1    LIG   0.0000
  20 H            3.1977     2.3931     0.3484 H            1    LIG   0.0000
  21 H            0.2548     0.6200     1.5479 H            1    LIG   0.0000
  22 H            1.5479     0.2548     0.6200 H            1    LIG   0.0000
  23 H           -0.4509     2.2263     0.1546 H            1    LIG   0.0000
  24 H            1.0593     2.5682    -0.3642 H            1    LIG   0.0000
  25 H            0.7702     1.5725     3.6183 H            1    LIG   0.0000
  26 H            4.0680     4.0626     4.0517 H            1    LIG   0.0000
@<TRIPOS>BOND
   1        1        2 ar
   2        2        3 ar
   3        2        4 1
   4        4        5 ar
   5        5        6 ar
   6        6        7 1
   7        7        8 1
   8        8        9 1
   9        9       10 1
  10        9       11 1
  11        9       12 1
  12        6       13 ar
  13       13       14 ar
  14       14       15 1
  15       15       16 1
  16       15       17 1
  17       15       18 1
  18       14       19 ar
  19       19        4 ar
  20        5       20 1
  21        7       21 1
  22        7       22 1
  23        8       23 1
  24        8       24 1
  25       13       25 1
  26       19       26 1

@<TRIPOS>MOLECULE

  26   26
SMALL
USER_CHARGES
@<TRIPOS>ATOM
   1 O1           6.0479     1.4738     2.0843 O.co2        1    LIG   0.0000
   2 C2           5.4226     2.0476     3.0021 C.2          1    LIG   0.0000
   3 O3           5.9893     2.3367     4.0314 O.co2        1    LIG  -1.0000
   4 C4           4.0186     2.3668     2.8334 C.ar         1    LIG   0.0000
   5 C5           3.2225     1.5588     2.0286 C.ar         1    LIG   0.0000
   6 C6           1.8773     1.8773     1.8773 C.ar         1    LIG   0.0000
   7 C7           1.0000     1.0000     1.0000 C.3          1    LIG   0.0000
   8 C8           0.4223     1.8328    -0.1327 C.3          1    LIG   0.0000
   9 C9          -0.9309     1.2703    -0.5362 C.3          1    LIG   0.0000
  10 F10         -1.6359     0.9858     0.5551 F            1    LIG   0.0000
  11 F11         -1.5855     2.1698    -1.2650 F            1    LIG   0.0000
  12 F12         -0.7552     0.1629    -1.2516 F            1    LIG   0.0000
  13 C13          1.3243     2.9825     2.5153 C.ar         1    LIG   0.0000
  14 C14          2.1420     3.7744     3.3145 C.ar         1    LIG   0.0000
  15 C15          1.5479     4.9846     4.0156 C.3          1    LIG   0.0000
  16 F16          0.2204     4.9137     3.9741 F            1    LIG   0.0000
  17 F17          1.9513     5.0052     5.2828 F            1    LIG   0.0000
  18 F18          1.9519     6.0942     3.4037 F            1    LIG   0.0000
  19 C19          3.4902     3.4779     3.4821 C.ar         1    LIG   0.0000
  20 H            3.6110     0.7617     1.5663 H            1    LIG   0.0000
  21 H            0.2548     0.6200     1.5479 H            1    LIG   0.0000
  22 H            1.5479     0.2548     0.6200 H            1    LIG   0.0000
  23 H            0.3127     2.7791     0.1716 H            1    LIG   0.0000
  24 H            1.0423     1.8046    -0.9169 H            1    LIG   0.0000
  25 H            0.3557     3.2038     2.4015 H            1    LIG   0.0000
  26 H            4.0698     4.0536     4.0589 H            1    LIG   0.0000
@<TRIPOS>BOND
   1        1        2 ar
   2        2        3 ar
   3        2        4 1
   4        4        5 ar
   5        5        6 ar
   6        6        7 1
   7        7        8 1
   8        8        9 1
   9        9       10 1
  10        9       11 1
  11        9       12 1
  12        6       13 ar
  13       13       14 ar
  14       14       15 1
  15       15       16 1
  16       15       17 1
  17       15       18 1
  18       14       19 ar
  19       19        4 ar
  20        5       20 1
  21        7       21 1
  22        7       22 1
  23        8       23 1
  24        8       24 1
  25       13       25 1
  26       19       26 1

@<TRIPOS>MOLECULE

  26   26
SMALL
USER_CHARGES
@<TRIPOS>ATOM
   1 O1           5.8051     0.8591     2.9417 O.co2        1    LIG   0.0000
   2 C2           5.4226     2.0476     3.0021 C.2          1    LIG   0.0000
   3 O3           6.2243     2.9318     3.2015 O.co2        1    LIG  -1.0000
   4 C4           4.0186     2.3668     2.8334 C.ar         1    LIG   0.0000
   5 C5           3.2225     1.5588     2.0286 C.ar         1    LIG   0.0000
   6 C6           1.8773     1.8773     1.8773 C.ar         1    LIG   0.0000
   7 C7           1.0000     1.0000     1.0000 C.3          1    LIG   0.0000
   8 C8           0.4223     1.8328    -0.1327 C.3          1    LIG   0.0000
   9 C9           0.2040     0.9498    -1.3505 C.3          1    LIG   0.0000
  10 F10         -0.3496    -0.1987    -0.9718 F            1    LIG   0.0000
  11 F11         -0.6022     1.5689    -2.2082 F            1    LIG   0.0000
  12 F12          1.3726     0.7065    -1.9370 F            1    LIG   0.0000
  13 C13          1.3243     2.9825     2.5153 C.ar         1    LIG   0.0000
  14 C14          2.1420     3.7744     3.3145 C.ar         1    LIG   0.0000
  15 C15          1.5479     4.9846     4.0156 C.3          1    LIG   0.0000
  16 F16          0.2204     4.9137     3.9741 F            1    LIG   0.0000
  17 F17          1.9513     5.0052     5.2828 F            1    LIG   0.0000
  18 F18          1.9519     6.0942     3.4037 F            1    LIG   0.0000
  19 C19          3.4902     3.4779     3.4821 C.ar         1    LIG   0.0000
  20 H            3.6110     0.7617     1.5663 H            1    LIG   0.0000
  21 H            0.2548     0.6200     1.5479 H            1    LIG   0.0000
  22 H            1.5479     0.2548     0.6200 H            1    LIG   0.0000
  23 H           -0.4509     2.2263     0.1546 H            1    LIG   0.0000
  24 H            1.0593     2.5682    -0.3642 H            1    LIG   0.0000
  25 H            0.3557     3.2038     2.4015 H            1    LIG   0.0000
  26 H            4.0698     4.0536     4.0589 H            1    LIG   0.0000
@<TRIPOS>BOND
   1        1        2 ar
   2        2        3 ar
   3        2        4 1
   4        4        5 ar
   5        5        6 ar
   6        6        7 1
   7        7        8 1
   8        8        9 1
   9        9       10 1
  10        9       11 1
  11        9       12 1
  12        6       13 ar
  13       13       14 ar
  14       14       15 1
  15       15       16 1
  16       15       17 1
  17       15       18 1
  18       14       19 ar
  19       19        4 ar
  20        5       20 1
  21        7       21 1
  22        7       22 1
  23        8       23 1
  24        8       24 1
  25       13       25 1
  26       19       26 1

@<TRIPOS>MOLECULE

  26   26
SMALL
USER_CHARGES
@<TRIPOS>ATOM
   1 O1           0.3239     3.9231     5.1413 O.co2        1    LIG   0.0000
   2 C2           1.5423     4.0419     4.8883 C.2          1    LIG   0.0000
   3 O3           2.2400     4.7408     5.5874 O.co2        1    LIG  -1.0000
   4 C4           2.1192     3.3423     3.7572 C.ar         1    LIG   0.0000
   5 C5           1.3094     2.5412     2.9592 C.ar         1    LIG   0.0000
   6 C6           1.8773     1.8773     1.8773 C.ar         1    LIG   0.0000
   7 C7           1.0000     1.0000     1.0000 C.3          1    LIG   0.0000
   8 C8           0.4223     1.8328    -0.1327 C.3          1    LIG   0.0000
   9 C9          -0.4552     0.9553    -1.0103 C.3          1    LIG   0.0000
  10 F10         -1.2231     0.1874    -0.2424 F            1    LIG   0.0000
  11 F11         -1.2231     1.7231    -1.7782 F            1    LIG   0.0000
  12 F12          0.3126     0.1874    -1.7782 F            1    LIG   0.0000
  13 C13          3.2314     2.0043     1.5864 C.ar         1    LIG   0.0000
  14 C14          4.0194     2.8114     2.4001 C.ar         1    LIG   0.0000
  15 C15          5.5002     2.9566     2.0913 C.3          1    LIG   0.0000
  16 F16          6.0567     3.7872     2.9685 F            1    LIG   0.0000
  17 F17          6.0888     1.7667     2.1725 F            1    LIG   0.0000
  18 F18          5.6513     3.4430     0.8627 F            1    LIG   0.0000
  19 C19          3.4763     3.4858     3.4881 C.ar         1    LIG   0.0000
  20 H            0.3347     2.4442     3.1602 H            1    LIG   0.0000
  21 H            0.2548     0.6200     1.5479 H            1    LIG   0.0000
  22 H            1.5479     0.2548     0.6200 H            1    LIG   0.0000
  23 H           -0.1256     2.5781     0.2473 H            1    LIG   0.0000
  24 H            1.1676     2.2129    -0.6807 H            1    LIG   0.0000
  25 H            3.6314     1.5238     0.8059 H            1    LIG   0.0000
  26 H            4.0514     4.0639     4.0671 H            1    LIG   0.0000
@<TRIPOS>BOND
   1        1        2 ar
   2        2        3 ar
   3        2        4 1
   4        4        5 ar
   5        5        6 ar
   6        6        7 1
   7        7        8 1
   8        8        9 1
   9        9       10 1
  10        9       11 1
  11        9       12 1
  12        6       13 ar
  13       13       14 ar
  14       14       15 1
  15       15       16 1
  16       15       17 1
  17       15       18 1
  18       14       19 ar
  19       19        4 ar
  20        5       20 1
  21        7       21 1
  22        7       22 1
  23        8       23 1
  24        8       24 1
  25       13       25 1
  26       19       26 1

@<TRIPOS>MOLECULE

  26   26
SMALL
USER_CHARGES
@<TRIPOS>ATOM
   1 O1           1.0515     2.4261     5.9108 O.co2        1    LIG   0.0000
   2 C2           2.0476     3.0021     5.4226 C.2          1    LIG   0.0000
   3 O3           2.7456     3.7006     6.1220 O.co2        1    LIG  -1.0000
   4 C4           2.3668     2.8334     4.0186 C.ar         1    LIG   0.0000
   5 C5           1.5588     2.0286     3.2225 C.ar         1    LIG   0.0000
   6 C6           1.8773     1.8773     1.8773 C.ar         1    LIG   0.0000
   7 C7           1.0000     1.0000     1.0000 C.3          1    LIG   0.0000
   8 C8           0.4223     1.8328    -0.1327 C.3          1    LIG   0.0000
   9 C9          -0.4552     0.9553    -1.0103 C.3          1    LIG   0.0000
  10 F10         -1.2231     0.1874    -0.2424 F            1    LIG   0.0000
  11 F11         -1.2231     1.7231    -1.7782 F            1    LIG   0.0000
  12 F12          0.3126     0.1874    -1.7782 F            1    LIG   0.0000
  13 C13          2.9825     2.5153     1.3243 C.ar         1    LIG   0.0000
  14 C14          3.7744     3.3145     2.1420 C.ar         1    LIG   0.0000
  15 C15          4.9846     4.0156     1.5479 C.3          1    LIG   0.0000
  16 F16          4.8749     5.3273     1.7384 F            1    LIG   0.0000
  17 F17          6.0894     3.5724     2.1412 F            1    LIG   0.0000
  18 F18          5.0488     3.7609     0.2441 F            1    LIG   0.0000
  19 C19          3.4779     3.4821     3.4902 C.ar         1    LIG   0.0000
  20 H            0.7617     1.5663     3.6110 H            1    LIG   0.0000
  21 H            0.2548     0.6200     1.5479 H            1    LIG   0.0000
  22 H            1.5479     0.2548     0.6200 H            1    LIG   0.0000
  23 H           -0.1256     2.5781     0.2473 H            1    LIG   0.0000
  24 H            1.1676     2.2129    -0.6807 H            1    LIG   0.0000
  25 H            3.2038     2.4015     0.3557 H            1    LIG   0.0000
  26 H            4.0536     4.0589     4.0698 H            1    LIG   0.0000
@<TRIPOS>BOND
   1        1        2 ar
   2        2        3 ar
   3        2        4 1
   4        4        5 ar
   5        5        6 ar
   6        6        7 1
   7        7        8 1
   8        8        9 1
   9        9       10 1
  10        9       11 1
  11        9       12 1
  12        6       13 ar
  13       13       14 ar
  14       14       15 1
  15       15       16 1
  16       15       17 1
  17       15       18 1
  18       14       19 ar
  19       19        4 ar
  20        5       20 1
  21        7       21 1
  22        7       22 1
  23        8       23 1
  24        8       24 1
  25       13       25 1
  26       19       26 1

@<TRIPOS>MOLECULE

  26   26
SMALL
USER_CHARGES
@<TRIPOS>ATOM
   1 O1           0.3481     5.2074     3.8328 O.co2        1    LIG   0.0000
   2 C2           1.5590     4.9340     3.9795 C.2          1    LIG   0.0000
   3 O3           2.2568     5.6332     4.6782 O.co2        1    LIG  -1.0000
   4 C4           2.1272     3.7791     3.3124 C.ar         1    LIG   0.0000
   5 C5           1.3174     2.9811     2.5113 C.ar         1    LIG   0.0000
   6 C6           1.8773     1.8773     1.8773 C.ar         1    LIG   0.0000
   7 C7           1.0000     1.0000     1.0000 C.3          1    LIG   0.0000
   8 C8           0.4223     1.8328    -0.1327 C.3          1    LIG   0.0000
   9 C9          -0.4552     0.9553    -1.0103 C.3          1    LIG   0.0000
  10 F10         -1.2231     0.1874    -0.2424 F            1    LIG   0.0000
  11 F11         -1.2231     1.7231    -1.7782 F            1    LIG   0.0000
  12 F12          0.3126     0.1874    -1.7782 F            1    LIG   0.0000
  13 C13          3.2238     1.5656     2.0327 C.ar         1    LIG   0.0000
  14 C14          4.0119     2.3796     2.8395 C.ar         1    LIG   0.0000
  15 C15          5.4842     2.0475     3.0165 C.3          1    LIG   0.0000
  16 F16          5.7607     1.9354     4.3126 F            1    LIG   0.0000
  17 F17          5.7563     0.8986     2.4042 F            1    LIG   0.0000
  18 F18          6.2242     3.0178     2.4876 F            1    LIG   0.0000
  19 C19          3.4766     3.4889     3.4848 C.ar         1    LIG   0.0000
  20 H            0.3484     3.1977     2.3931 H            1    LIG   0.0000
  21 H            0.2548     0.6200     1.5479 H            1    LIG   0.0000
  22 H            1.5479     0.2548     0.6200 H            1    LIG   0.0000
  23 H           -0.1256     2.5781     0.2473 H            1    LIG   0.0000
  24 H            1.1676     2.2129    -0.6807 H            1    LIG   0.0000
  25 H            3.6183     0.7702     1.5725 H            1    LIG   0.0000
  26 H            4.0517     4.0680     4.0626 H            1    LIG   0.0000
@<TRIPOS>BOND
   1        1        2 ar
   2        2        3 ar
   3        2        4 1
   4        4        5 ar
   5        5        6 ar
   6        6        7 1
   7        7        8 1
   8        8        9 1
   9        9       10 1
  10        9       11 1
  11        9       12 1
  12        6       13 ar
  13       13       14 ar
  14       14       15 1
  15       15       16 1
  16       15       17 1
  17       15       18 1
  18       14       19 ar
  19       19        4 ar
  20        5       20 1
  21        7       21 1
  22        7       22 1
  23        8       23 1
  24        8       24 1
  25       13       25 1
  26       19       26 1

@<TRIPOS>MOLECULE

  26   26
SMALL
USER_CHARGES
@<TRIPOS>ATOM
   1 O1           0.7873     5.7702     2.8308 O.co2        1    LIG   0.0000
   2 C2           1.8640     5.3249     3.2835 C.2          1    LIG   0.0000
   3 O3           2.5619     6.0243     3.9820 O.co2        1    LIG  -1.0000
   4 C4           2.2764     3.9705     2.9718 C.ar         1    LIG   0.0000
   5 C5           1.4677     3.1740     2.1682 C.ar         1    LIG   0.0000
   6 C6           1.8773     1.8773     1.8773 C.ar         1    LIG   0.0000
   7 C7           1.0000     1.0000     1.0000 C.3          1    LIG   0.0000
   8 C8           0.4223     1.8328    -0.1327 C.3          1    LIG   0.0000
   9 C9          -0.8020     1.1345    -0.7016 C.3          1    LIG   0.0000
  10 F10         -1.5594     0.6853     0.2951 F            1    LIG   0.0000
  11 F11         -1.5012     1.9945    -1.4369 F            1    LIG   0.0000
  12 F12         -0.4169     0.1128    -1.4610 F            1    LIG   0.0000
  13 C13          3.0743     1.3731     2.3747 C.ar         1    LIG   0.0000
  14 C14          3.8647     2.1901     3.1761 C.ar         1    LIG   0.0000
  15 C15          5.1742     1.6488     3.7252 C.3          1    LIG   0.0000
  16 F16          4.9782     1.1751     4.9525 F            1    LIG   0.0000
  17 F17          5.6148     0.6715     2.9380 F            1    LIG   0.0000
  18 F18          6.0756     2.6258     3.7658 F            1    LIG   0.0000
  19 C19          3.4778     3.4902     3.4822 C.ar         1    LIG   0.0000
  20 H            0.6056     3.5280     1.8055 H            1    LIG   0.0000
  21 H            0.2548     0.6200     1.5479 H            1    LIG   0.0000
  22 H            1.5479     0.2548     0.6200 H            1    LIG   0.0000
  23 H            0.1610     2.7332     0.2152 H            1    LIG   0.0000
  24 H            1.1092     1.9398    -0.8516 H            1    LIG   0.0000
  25 H            3.3615     0.4396     2.1599 H            1    LIG   0.0000
  26 H            4.0533     4.0697     4.0593 H            1    LIG   0.0000
@<TRIPOS>BOND
   1        1        2 ar
   2        2        3 ar
   3        2        4 1
   4        4        5 ar
   5        5        6 ar
   6        6        7 1
   7        7        8 1
   8        8        9 1
   9        9       10 1
  10        9       11 1
  11        9       12 1
  12        6       13 ar
  13       13       14 ar
  14       14       15 1
  15       15       16 1
  16       15       17 1
  17       15       18 1
  18       14       19 ar
  19       19        4 ar
  20        5       20 1
  21        7       21 1
  22        7       22 1
  23        8       23 1
  24        8       24 1
  25       13       25 1
  26       19       26 1

@<TRIPOS>MOLECULE

  26   26
SMALL
USER_CHARGES
@<TRIPOS>ATOM
   1 O1           0.7873     5.7702     2.8308 O.co2        1    LIG   0.0000
   2 C2           1.8640     5.3249     3.2835 C.2          1    LIG   0.0000
   3 O3           2.5619     6.0243     3.9820 O.co2        1    LIG  -1.0000
   4 C4           2.2764     3.9705     2.9718 C.ar         1    LIG   0.0000
   5 C5           1.4677     3.1740     2.1682 C.ar         1    LIG   0.0000
   6 C6           1.8773     1.8773     1.8773 C.ar         1    LIG   0.0000
   7 C7           1.0000     1.0000     1.0000 C.3          1    LIG   0.0000
   8 C8           0.4223     1.8328    -0.1327 C.3          1    LIG   0.0000
   9 C9           0.2040     0.9498    -1.3505 C.3          1    LIG   0.0000
  10 F10         -0.3496    -0.1987    -0.9718 F            1    LIG   0.0000
  11 F11         -0.6022     1.5689    -2.2082 F            1    LIG   0.0000
  12 F12          1.3726     0.7065    -1.9370 F            1    LIG   0.0000
  13 C13          3.0743     1.3731     2.3747 C.ar         1    LIG   0.0000
  14 C14          3.8647     2.1901     3.1761 C.ar         1    LIG   0.0000
  15 C15          5.1742     1.6488     3.7252 C.3          1    LIG   0.0000
  16 F16          4.9782     1.1751     4.9525 F            1    LIG   0.0000
  17 F17          5.6148     0.6715     2.9380 F            1    LIG   0.0000
  18 F18          6.0756     2.6258     3.7658 F            1    LIG   0.0000
  19 C19          3.4778     3.4902     3.4822 C.ar         1    LIG   0.0000
  20 H            0.6056     3.5280     1.8055 H            1    LIG   0.0000
  21 H            0.2548     0.6200     1.5479 H            1    LIG   0.0000
  22 H            1.5479     0.2548     0.6200 H            1    LIG   0.0000
  23 H           -0.4509     2.2263     0.1546 H            1    LIG   0.0000
  24 H            1.0593     2.5682    -0.3642 H            1    LIG   0.0000
  25 H            3.3615     0.4396     2.1599 H            1    LIG   0.0000
  26 H            4.0533     4.0697     4.0593 H            1    LIG   0.0000
@<TRIPOS>BOND
   1        1        2 ar
   2        2        3 ar
   3        2        4 1
   4        4        5 ar
   5        5        6 ar
   6        6        7 1
   7        7        8 1
   8        8        9 1
   9        9       10 1
  10        9       11 1
  11        9       12 1
  12        6       13 ar
  13       13       14 ar
  14       14       15 1
  15       15       16 1
  16       15       17 1
  17       15       18 1
  18       14       19 ar
  19       19        4 ar
  20        5       20 1
  21        7       21 1
  22        7       22 1
  23        8       23 1
  24        8       24 1
  25       13       25 1
  26       19       26 1

