@<TRIPOS>MOLECULE
*****
 26 26 0 0 0
SMALL
USER_CHARGES

@<TRIPOS>ATOM
      1 O1          1.0515    2.4261    5.9108 O.2     1  LIG1        0.0000
      2 C2          2.0476    3.0021    5.4226 C.3     1  LIG1        0.0000
      3 O3          2.7456    3.7006    6.1220 O.2     1  LIG1       -1.0000
      4 C4          2.3668    2.8334    4.0186 C.3     1  LIG1        0.0000
      5 C5          1.5588    2.0286    3.2225 C.3     1  LIG1        0.0000
      6 C6          1.8773    1.8773    1.8773 C.3     1  LIG1        0.0000
      7 C7          1.0000    1.0000    1.0000 C.3     1  LIG1        0.0000
      8 C8          0.4223    1.8328   -0.1327 C.3     1  LIG1        0.0000
      9 C9         -0.4552    0.9553   -1.0103 C.3     1  LIG1        0.0000
     10 F10        -1.2231    0.1874   -0.2424 F       1  LIG1        0.0000
     11 F11        -1.2231    1.7231   -1.7782 F       1  LIG1        0.0000
     12 F12         0.3126    0.1874   -1.7782 F       1  LIG1        0.0000
     13 C13         2.9825    2.5153    1.3243 C.3     1  LIG1        0.0000
     14 C14         3.7744    3.3145    2.1420 C.3     1  LIG1        0.0000
     15 C15         4.9846    4.0156    1.5479 C.3     1  LIG1        0.0000
     16 F16         4.8749    5.3273    1.7384 F       1  LIG1        0.0000
     17 F17         6.0894    3.5724    2.1412 F       1  LIG1        0.0000
     18 F18         5.0488    3.7609    0.2441 F       1  LIG1        0.0000
     19 C19         3.4779    3.4821    3.4902 C.3     1  LIG1        0.0000
     20 H           0.7617    1.5663    3.6110 H       1  LIG1        0.0000
     21 H           0.2548    0.6200    1.5479 H       1  LIG1        0.0000
     22 H           1.5479    0.2548    0.6200 H       1  LIG1        0.0000
     23 H          -0.1256    2.5781    0.2473 H       1  LIG1        0.0000
     24 H           1.1676    2.2129   -0.6807 H       1  LIG1        0.0000
     25 H           3.2038    2.4015    0.3557 H       1  LIG1        0.0000
     26 H           4.0536    4.0589    4.0698 H       1  LIG1        0.0000
@<TRIPOS>UNITY_ATOM_ATTR
1 1
charge -1
@<TRIPOS>BOND
     1     1     2    1
     2     2     3    2
     3     2     4    1
     4     4     5   ar
     5     5     6   ar
     6     6     7    1
     7     7     8    1
     8     8     9    1
     9     9    10    1
    10     9    11    1
    11     9    12    1
    12     6    13   ar
    13    13    14   ar
    14    14    15    1
    15    15    16    1
    16    15    17    1
    17    15    18    1
    18    14    19   ar
    19    19     4   ar
    20     5    20    1
    21     7    21    1
    22     7    22    1
    23     8    23    1
    24     8    24    1
    25    13    25    1
    26    19    26    1
