@<TRIPOS>MOLECULE
*****
 26 26 0 0 0
SMALL
USER_CHARGES

@<TRIPOS>ATOM
      1 O1          5.8051    0.8591    2.9417 O.2     1  LIG1        0.0000
      2 C2          5.4226    2.0476    3.0021 C.3     1  LIG1        0.0000
      3 O3          6.2243    2.9318    3.2015 O.2     1  LIG1       -1.0000
      4 C4          4.0186    2.3668    2.8334 C.3     1  LIG1        0.0000
      5 C5          3.2225    1.5588    2.0286 C.3     1  LIG1        0.0000
      6 C6          1.8773    1.8773    1.8773 C.3     1  LIG1        0.0000
      7 C7          1.0000    1.0000    1.0000 C.3     1  LIG1        0.0000
      8 C8          0.4223    1.8328   -0.1327 C.3     1  LIG1        0.0000
      9 C9          0.2040    0.9498   -1.3505 C.3     1  LIG1        0.0000
     10 F10        -0.3496   -0.1987   -0.9718 F       1  LIG1        0.0000
     11 F11        -0.6022    1.5689   -2.2082 F       1  LIG1        0.0000
     12 F12         1.3726    0.7065   -1.9370 F       1  LIG1        0.0000
     13 C13         1.3243    2.9825    2.5153 C.3     1  LIG1        0.0000
     14 C14         2.1420    3.7744    3.3145 C.3     1  LIG1        0.0000
     15 C15         1.5479    4.9846    4.0156 C.3     1  LIG1        0.0000
     16 F16         0.2204    4.9137    3.9741 F       1  LIG1        0.0000
     17 F17         1.9513    5.0052    5.2828 F       1  LIG1        0.0000
     18 F18         1.9519    6.0942    3.4037 F       1  LIG1        0.0000
     19 C19         3.4902    3.4779    3.4821 C.3     1  LIG1        0.0000
     20 H           3.6110    0.7617    1.5663 H       1  LIG1        0.0000
     21 H           0.2548    0.6200    1.5479 H       1  LIG1        0.0000
     22 H           1.5479    0.2548    0.6200 H       1  LIG1        0.0000
     23 H          -0.4509    2.2263    0.1546 H       1  LIG1        0.0000
     24 H           1.0593    2.5682   -0.3642 H       1  LIG1        0.0000
     25 H           0.3557    3.2038    2.4015 H       1  LIG1        0.0000
     26 H           4.0698    4.0536    4.0589 H       1  LIG1        0.0000
@<TRIPOS>UNITY_ATOM_ATTR
1 1
charge -1
@<TRIPOS>BOND
     1     1     2    1
     2     2     3    2
     3     2     4    1
     4     4     5   ar
     5     5     6   ar
     6     6     7    1
     7     7     8    1
     8     8     9    1
     9     9    10    1
    10     9    11    1
    11     9    12    1
    12     6    13   ar
    13    13    14   ar
    14    14    15    1
    15    15    16    1
    16    15    17    1
    17    15    18    1
    18    14    19   ar
    19    19     4   ar
    20     5    20    1
    21     7    21    1
    22     7    22    1
    23     8    23    1
    24     8    24    1
    25    13    25    1
    26    19    26    1
