@<TRIPOS>MOLECULE
*****
 26 26 0 0 0
SMALL
USER_CHARGES

@<TRIPOS>ATOM
      1 O1          0.7873    5.7702    2.8308 O.2     1  LIG1        0.0000
      2 C2          1.8640    5.3249    3.2835 C.3     1  LIG1        0.0000
      3 O3          2.5619    6.0243    3.9820 O.2     1  LIG1       -1.0000
      4 C4          2.2764    3.9705    2.9718 C.3     1  LIG1        0.0000
      5 C5          1.4677    3.1740    2.1682 C.3     1  LIG1        0.0000
      6 C6          1.8773    1.8773    1.8773 C.3     1  LIG1        0.0000
      7 C7          1.0000    1.0000    1.0000 C.3     1  LIG1        0.0000
      8 C8          0.4223    1.8328   -0.1327 C.3     1  LIG1        0.0000
      9 C9          0.2040    0.9498   -1.3505 C.3     1  LIG1        0.0000
     10 F10        -0.3496   -0.1987   -0.9718 F       1  LIG1        0.0000
     11 F11        -0.6022    1.5689   -2.2082 F       1  LIG1        0.0000
     12 F12         1.3726    0.7065   -1.9370 F       1  LIG1        0.0000
     13 C13         3.0743    1.3731    2.3747 C.3     1  LIG1        0.0000
     14 C14         3.8647    2.1901    3.1761 C.3     1  LIG1        0.0000
     15 C15         5.1742    1.6488    3.7252 C.3     1  LIG1        0.0000
     16 F16         4.9782    1.1751    4.9525 F       1  LIG1        0.0000
     17 F17         5.6148    0.6715    2.9380 F       1  LIG1        0.0000
     18 F18         6.0756    2.6258    3.7658 F       1  LIG1        0.0000
     19 C19         3.4778    3.4902    3.4822 C.3     1  LIG1        0.0000
     20 H           0.6056    3.5280    1.8055 H       1  LIG1        0.0000
     21 H           0.2548    0.6200    1.5479 H       1  LIG1        0.0000
     22 H           1.5479    0.2548    0.6200 H       1  LIG1        0.0000
     23 H          -0.4509    2.2263    0.1546 H       1  LIG1        0.0000
     24 H           1.0593    2.5682   -0.3642 H       1  LIG1        0.0000
     25 H           3.3615    0.4396    2.1599 H       1  LIG1        0.0000
     26 H           4.0533    4.0697    4.0593 H       1  LIG1        0.0000
@<TRIPOS>UNITY_ATOM_ATTR
1 1
charge -1
@<TRIPOS>BOND
     1     1     2    1
     2     2     3    2
     3     2     4    1
     4     4     5   ar
     5     5     6   ar
     6     6     7    1
     7     7     8    1
     8     8     9    1
     9     9    10    1
    10     9    11    1
    11     9    12    1
    12     6    13   ar
    13    13    14   ar
    14    14    15    1
    15    15    16    1
    16    15    17    1
    17    15    18    1
    18    14    19   ar
    19    19     4   ar
    20     5    20    1
    21     7    21    1
    22     7    22    1
    23     8    23    1
    24     8    24    1
    25    13    25    1
    26    19    26    1
