@<TRIPOS>MOLECULE
*****
 26 26 0 0 0
SMALL
USER_CHARGES

@<TRIPOS>ATOM
      1 O1          5.9350    2.3358    1.1176 O.2     1  LIG1        0.0000
      2 C2          5.4394    2.9397    2.0933 C.3     1  LIG1        0.0000
      3 O3          6.1388    3.6380    2.7914 O.2     1  LIG1       -1.0000
      4 C4          4.0266    2.8035    2.3886 C.3     1  LIG1        0.0000
      5 C5          3.2305    1.9987    1.5807 C.3     1  LIG1        0.0000
      6 C6          1.8773    1.8773    1.8773 C.3     1  LIG1        0.0000
      7 C7          1.0000    1.0000    1.0000 C.3     1  LIG1        0.0000
      8 C8          0.4223    1.8328   -0.1327 C.3     1  LIG1        0.0000
      9 C9         -0.4552    0.9553   -1.0103 C.3     1  LIG1        0.0000
     10 F10        -1.2231    0.1874   -0.2424 F       1  LIG1        0.0000
     11 F11        -1.2231    1.7231   -1.7782 F       1  LIG1        0.0000
     12 F12         0.3126    0.1874   -1.7782 F       1  LIG1        0.0000
     13 C13         1.3167    2.5437    2.9617 C.3     1  LIG1        0.0000
     14 C14         2.1345    3.3425    3.7539 C.3     1  LIG1        0.0000
     15 C15         1.5319    4.0755    4.9408 C.3     1  LIG1        0.0000
     16 F16         0.2272    3.8243    5.0011 F       1  LIG1        0.0000
     17 F17         2.1156    3.6601    6.0613 F       1  LIG1        0.0000
     18 F18         1.7254    5.3837    4.7988 F       1  LIG1        0.0000
     19 C19         3.4905    3.4810    3.4787 C.3     1  LIG1        0.0000
     20 H           3.6247    1.5152    0.7992 H       1  LIG1        0.0000
     21 H           0.2548    0.6200    1.5479 H       1  LIG1        0.0000
     22 H           1.5479    0.2548    0.6200 H       1  LIG1        0.0000
     23 H          -0.1256    2.5781    0.2473 H       1  LIG1        0.0000
     24 H           1.1676    2.2129   -0.6807 H       1  LIG1        0.0000
     25 H           0.3427    2.4503    3.1682 H       1  LIG1        0.0000
     26 H           4.0702    4.0577    4.0545 H       1  LIG1        0.0000
@<TRIPOS>UNITY_ATOM_ATTR
1 1
charge -1
@<TRIPOS>BOND
     1     1     2    1
     2     2     3    2
     3     2     4    1
     4     4     5   ar
     5     5     6   ar
     6     6     7    1
     7     7     8    1
     8     8     9    1
     9     9    10    1
    10     9    11    1
    11     9    12    1
    12     6    13   ar
    13    13    14   ar
    14    14    15    1
    15    15    16    1
    16    15    17    1
    17    15    18    1
    18    14    19   ar
    19    19     4   ar
    20     5    20    1
    21     7    21    1
    22     7    22    1
    23     8    23    1
    24     8    24    1
    25    13    25    1
    26    19    26    1
