@<TRIPOS>MOLECULE
*****
 26 26 0 0 0
SMALL
USER_CHARGES

@<TRIPOS>ATOM
      1 O1          0.3239    3.9231    5.1413 O.2     1  LIG1        0.0000
      2 C2          1.5423    4.0419    4.8883 C.3     1  LIG1        0.0000
      3 O3          2.2400    4.7408    5.5874 O.2     1  LIG1       -1.0000
      4 C4          2.1192    3.3423    3.7572 C.3     1  LIG1        0.0000
      5 C5          1.3094    2.5412    2.9592 C.3     1  LIG1        0.0000
      6 C6          1.8773    1.8773    1.8773 C.3     1  LIG1        0.0000
      7 C7          1.0000    1.0000    1.0000 C.3     1  LIG1        0.0000
      8 C8          0.4223    1.8328   -0.1327 C.3     1  LIG1        0.0000
      9 C9         -0.4552    0.9553   -1.0103 C.3     1  LIG1        0.0000
     10 F10        -1.2231    0.1874   -0.2424 F       1  LIG1        0.0000
     11 F11        -1.2231    1.7231   -1.7782 F       1  LIG1        0.0000
     12 F12         0.3126    0.1874   -1.7782 F       1  LIG1        0.0000
     13 C13         3.2314    2.0043    1.5864 C.3     1  LIG1        0.0000
     14 C14         4.0194    2.8114    2.4001 C.3     1  LIG1        0.0000
     15 C15         5.5002    2.9566    2.0913 C.3     1  LIG1        0.0000
     16 F16         6.0567    3.7872    2.9685 F       1  LIG1        0.0000
     17 F17         6.0888    1.7667    2.1725 F       1  LIG1        0.0000
     18 F18         5.6513    3.4430    0.8627 F       1  LIG1        0.0000
     19 C19         3.4763    3.4858    3.4881 C.3     1  LIG1        0.0000
     20 H           0.3347    2.4442    3.1602 H       1  LIG1        0.0000
     21 H           0.2548    0.6200    1.5479 H       1  LIG1        0.0000
     22 H           1.5479    0.2548    0.6200 H       1  LIG1        0.0000
     23 H          -0.1256    2.5781    0.2473 H       1  LIG1        0.0000
     24 H           1.1676    2.2129   -0.6807 H       1  LIG1        0.0000
     25 H           3.6314    1.5238    0.8059 H       1  LIG1        0.0000
     26 H           4.0514    4.0639    4.0671 H       1  LIG1        0.0000
@<TRIPOS>UNITY_ATOM_ATTR
1 1
charge -1
@<TRIPOS>BOND
     1     1     2    1
     2     2     3    2
     3     2     4    1
     4     4     5   ar
     5     5     6   ar
     6     6     7    1
     7     7     8    1
     8     8     9    1
     9     9    10    1
    10     9    11    1
    11     9    12    1
    12     6    13   ar
    13    13    14   ar
    14    14    15    1
    15    15    16    1
    16    15    17    1
    17    15    18    1
    18    14    19   ar
    19    19     4   ar
    20     5    20    1
    21     7    21    1
    22     7    22    1
    23     8    23    1
    24     8    24    1
    25    13    25    1
    26    19    26    1
