@<TRIPOS>MOLECULE
*****
 26 26 0 0 0
SMALL
USER_CHARGES

@<TRIPOS>ATOM
      1 O1          0.3481    5.2074    3.8328 O.2     1  LIG1        0.0000
      2 C2          1.5590    4.9340    3.9795 C.3     1  LIG1        0.0000
      3 O3          2.2568    5.6332    4.6782 O.2     1  LIG1       -1.0000
      4 C4          2.1272    3.7791    3.3124 C.3     1  LIG1        0.0000
      5 C5          1.3174    2.9811    2.5113 C.3     1  LIG1        0.0000
      6 C6          1.8773    1.8773    1.8773 C.3     1  LIG1        0.0000
      7 C7          1.0000    1.0000    1.0000 C.3     1  LIG1        0.0000
      8 C8          0.4223    1.8328   -0.1327 C.3     1  LIG1        0.0000
      9 C9         -0.4552    0.9553   -1.0103 C.3     1  LIG1        0.0000
     10 F10        -1.2231    0.1874   -0.2424 F       1  LIG1        0.0000
     11 F11        -1.2231    1.7231   -1.7782 F       1  LIG1        0.0000
     12 F12         0.3126    0.1874   -1.7782 F       1  LIG1        0.0000
     13 C13         3.2238    1.5656    2.0327 C.3     1  LIG1        0.0000
     14 C14         4.0119    2.3796    2.8395 C.3     1  LIG1        0.0000
     15 C15         5.4842    2.0475    3.0165 C.3     1  LIG1        0.0000
     16 F16         5.7607    1.9354    4.3126 F       1  LIG1        0.0000
     17 F17         5.7563    0.8986    2.4042 F       1  LIG1        0.0000
     18 F18         6.2242    3.0178    2.4876 F       1  LIG1        0.0000
     19 C19         3.4766    3.4889    3.4848 C.3     1  LIG1        0.0000
     20 H           0.3484    3.1977    2.3931 H       1  LIG1        0.0000
     21 H           0.2548    0.6200    1.5479 H       1  LIG1        0.0000
     22 H           1.5479    0.2548    0.6200 H       1  LIG1        0.0000
     23 H          -0.1256    2.5781    0.2473 H       1  LIG1        0.0000
     24 H           1.1676    2.2129   -0.6807 H       1  LIG1        0.0000
     25 H           3.6183    0.7702    1.5725 H       1  LIG1        0.0000
     26 H           4.0517    4.0680    4.0626 H       1  LIG1        0.0000
@<TRIPOS>UNITY_ATOM_ATTR
1 1
charge -1
@<TRIPOS>BOND
     1     1     2    1
     2     2     3    2
     3     2     4    1
     4     4     5   ar
     5     5     6   ar
     6     6     7    1
     7     7     8    1
     8     8     9    1
     9     9    10    1
    10     9    11    1
    11     9    12    1
    12     6    13   ar
    13    13    14   ar
    14    14    15    1
    15    15    16    1
    16    15    17    1
    17    15    18    1
    18    14    19   ar
    19    19     4   ar
    20     5    20    1
    21     7    21    1
    22     7    22    1
    23     8    23    1
    24     8    24    1
    25    13    25    1
    26    19    26    1
