@<TRIPOS>MOLECULE
*****
 26 26 0 0 0
SMALL
USER_CHARGES

@<TRIPOS>ATOM
      1 O1          5.5448    3.4622    0.5988 O.2     1  LIG1        0.0000
      2 C2          4.9340    3.9795    1.5590 C.3     1  LIG1        0.0000
      3 O3          5.3066    5.0369    2.0141 O.2     1  LIG1       -1.0000
      4 C4          3.7791    3.3124    2.1272 C.3     1  LIG1        0.0000
      5 C5          2.9811    2.5113    1.3174 C.3     1  LIG1        0.0000
      6 C6          1.8773    1.8773    1.8773 C.3     1  LIG1        0.0000
      7 C7          1.0000    1.0000    1.0000 C.3     1  LIG1        0.0000
      8 C8          0.4223    1.8328   -0.1327 C.3     1  LIG1        0.0000
      9 C9         -0.9309    1.2703   -0.5362 C.3     1  LIG1        0.0000
     10 F10        -1.6359    0.9858    0.5551 F       1  LIG1        0.0000
     11 F11        -1.5855    2.1698   -1.2650 F       1  LIG1        0.0000
     12 F12        -0.7552    0.1629   -1.2516 F       1  LIG1        0.0000
     13 C13         1.5656    2.0327    3.2238 C.3     1  LIG1        0.0000
     14 C14         2.3796    2.8395    4.0119 C.3     1  LIG1        0.0000
     15 C15         2.0475    3.0165    5.4842 C.3     1  LIG1        0.0000
     16 F16         0.7944    2.6297    5.7057 F       1  LIG1        0.0000
     17 F17         2.8756    2.2778    6.2174 F       1  LIG1        0.0000
     18 F18         2.1819    4.2968    5.8182 F       1  LIG1        0.0000
     19 C19         3.4889    3.4848    3.4766 C.3     1  LIG1        0.0000
     20 H           3.1977    2.3931    0.3484 H       1  LIG1        0.0000
     21 H           0.2548    0.6200    1.5479 H       1  LIG1        0.0000
     22 H           1.5479    0.2548    0.6200 H       1  LIG1        0.0000
     23 H           0.3127    2.7791    0.1716 H       1  LIG1        0.0000
     24 H           1.0423    1.8046   -0.9169 H       1  LIG1        0.0000
     25 H           0.7702    1.5725    3.6183 H       1  LIG1        0.0000
     26 H           4.0680    4.0626    4.0517 H       1  LIG1        0.0000
@<TRIPOS>UNITY_ATOM_ATTR
1 1
charge -1
@<TRIPOS>BOND
     1     1     2    1
     2     2     3    2
     3     2     4    1
     4     4     5   ar
     5     5     6   ar
     6     6     7    1
     7     7     8    1
     8     8     9    1
     9     9    10    1
    10     9    11    1
    11     9    12    1
    12     6    13   ar
    13    13    14   ar
    14    14    15    1
    15    15    16    1
    16    15    17    1
    17    15    18    1
    18    14    19   ar
    19    19     4   ar
    20     5    20    1
    21     7    21    1
    22     7    22    1
    23     8    23    1
    24     8    24    1
    25    13    25    1
    26    19    26    1
