@<TRIPOS>MOLECULE

  63   69
SMALL
USER_CHARGES
@<TRIPOS>ATOM
   1 C1           1.5389     2.7586     3.6735 C.3          1    LIG   0.0000
   2 C2           2.9186     2.4054     3.1411 C.2          1    LIG   0.0000
   3 N3           4.0398     2.7733     3.7153 N.2          1    LIG   0.0000
   4 N4           5.0294     2.3038     2.9902 N.pl3        1    LIG   0.0000
   5 C5           6.3795     2.5054     3.3008 C.ar         1    LIG   0.0000
   6 C6           6.6917     3.2403     4.4399 C.ar         1    LIG   0.0000
   7 C7           8.0301     3.4446     4.7587 C.ar         1    LIG   0.0000
   8 C8           9.0263     2.9176     3.9453 C.ar         1    LIG   0.0000
   9 C9           8.6513     2.1915     2.8204 C.ar         1    LIG   0.0000
  10 N10          7.3557     2.0051     2.5281 N.ar         1    LIG   0.0000
  11 C11          4.5773     1.5997     1.9097 C.ar         1    LIG   0.0000
  12 N12          5.1582     0.9310     0.8970 N.ar         1    LIG   0.0000
  13 C13          4.4672     0.2953    -0.0661 C.ar         1    LIG   0.0000
  14 C14          5.1339    -0.4552    -1.2030 C.3          1    LIG   0.0000
  15 C15          6.4388     0.0394    -1.7446 C.3          1    LIG   0.0000
  16 C16          6.4015    -1.1984    -0.8890 C.3          1    LIG   0.0000
  17 C17          3.0776     0.3169    -0.0347 C.ar         1    LIG   0.0000
  18 C18          2.4495     1.0000     1.0000 C.ar         1    LIG   0.0000
  19 C19          1.0000     1.0000     1.0000 C.2          1    LIG   0.0000
  20 O20          0.4000    -0.0375     1.0608 O.2          1    LIG   0.0000
  21 N21          0.3150     2.1844     0.9306 N.am         1    LIG   0.0000
  22 C22         -1.0895     2.1844     0.9306 C.ar         1    LIG   0.0000
  23 C23         -1.7569     1.2963     1.7671 C.ar         1    LIG   0.0000
  24 C24         -3.1473     1.2731     1.7897 C.ar         1    LIG   0.0000
  25 C25         -3.8789     2.1337     0.9777 C.ar         1    LIG   0.0000
  26 N26         -5.2278     2.2863     0.8344 N.2          1    LIG   0.0000
  27 C27         -5.4328     3.2288    -0.0571 C.2          1    LIG   0.0000
  28 N28         -6.6908     3.6745    -0.4807 N.pl3        1    LIG   0.0000
  29 C29         -6.7757     4.7414    -1.4896 C.3          1    LIG   0.0000
  30 C30         -8.0012     5.6130    -1.2607 C.3          1    LIG   0.0000
  31 O31         -9.1591     4.8239    -1.0206 O.3          1    LIG   0.0000
  32 C32         -9.0282     4.0966     0.1940 C.3          1    LIG   0.0000
  33 C33         -7.8995     3.0803     0.1120 C.3          1    LIG   0.0000
  34 N34         -4.2378     3.7067    -0.5077 N.pl3        1    LIG   0.0000
  35 C35         -3.2472     3.0223     0.1382 C.ar         1    LIG   0.0000
  36 C36         -1.8531     3.0324     0.1301 C.ar         1    LIG   0.0000
  37 C37          3.2072     1.6446     1.9794 C.ar         1    LIG   0.0000
  38 H           -4.1096     4.4281    -1.1883 H            1    LIG   0.0000
  39 H            0.8402     2.3709     3.0721 H            1    LIG   0.0000
  40 H            1.4310     2.3842     4.5944 H            1    LIG   0.0000
  41 H            1.4379     3.7530     3.7040 H            1    LIG   0.0000
  42 H            5.9674     3.6148     5.0188 H            1    LIG   0.0000
  43 H            8.2755     3.9706     5.5730 H            1    LIG   0.0000
  44 H            9.9919     3.0576     4.1644 H            1    LIG   0.0000
  45 H            9.3543     1.8046     2.2236 H            1    LIG   0.0000
  46 H            4.5206    -0.8904    -1.8622 H            1    LIG   0.0000
  47 H            6.8411     0.8822    -1.3871 H            1    LIG   0.0000
  48 H            6.6343    -0.0346    -2.7225 H            1    LIG   0.0000
  49 H            6.5706    -2.0952    -1.2980 H            1    LIG   0.0000
  50 H            6.7774    -1.1783     0.0374 H            1    LIG   0.0000
  51 H            2.5425    -0.1480    -0.7401 H            1    LIG   0.0000
  52 H            0.8150     3.0490     0.8800 H            1    LIG   0.0000
  53 H           -1.2370     0.6742     2.3525 H            1    LIG   0.0000
  54 H           -3.6240     0.6340     2.3933 H            1    LIG   0.0000
  55 H           -6.8337     4.3281    -2.3984 H            1    LIG   0.0000
  56 H           -5.9550     5.3101    -1.4339 H            1    LIG   0.0000
  57 H           -7.8386     6.2021    -0.4691 H            1    LIG   0.0000
  58 H           -8.1546     6.1785    -2.0711 H            1    LIG   0.0000
  59 H           -9.8856     3.6166     0.3801 H            1    LIG   0.0000
  60 H           -8.8364     4.7368     0.9378 H            1    LIG   0.0000
  61 H           -7.6853     2.7555     1.0332 H            1    LIG   0.0000
  62 H           -8.1948     2.3097    -0.4529 H            1    LIG   0.0000
  63 H           -1.3817     3.6742    -0.4747 H            1    LIG   0.0000
@<TRIPOS>BOND
   1        1        2 1
   2        2        3 2
   3        3        4 1
   4        4        5 1
   5        5        6 ar
   6        6        7 ar
   7        7        8 ar
   8        8        9 ar
   9        9       10 ar
  10       10        5 ar
  11        4       11 1
  12       11       12 ar
  13       12       13 ar
  14       13       14 1
  15       14       15 1
  16       15       16 1
  17       16       14 1
  18       13       17 ar
  19       17       18 ar
  20       18       19 1
  21       19       20 2
  22       19       21 am
  23       21       22 1
  24       22       23 ar
  25       23       24 ar
  26       24       25 ar
  27       25       26 1
  28       26       27 2
  29       27       28 1
  30       28       29 1
  31       29       30 1
  32       30       31 1
  33       31       32 1
  34       32       33 1
  35       33       28 1
  36       27       34 1
  37       34       35 1
  38       35       25 ar
  39       35       36 ar
  40       36       22 ar
  41       18       37 ar
  42       37        2 1
  43       37       11 ar
  44       34       38 1
  45        1       39 1
  46        1       40 1
  47        1       41 1
  48        6       42 1
  49        7       43 1
  50        8       44 1
  51        9       45 1
  52       14       46 1
  53       15       47 1
  54       15       48 1
  55       16       49 1
  56       16       50 1
  57       17       51 1
  58       21       52 1
  59       23       53 1
  60       24       54 1
  61       29       55 1
  62       29       56 1
  63       30       57 1
  64       30       58 1
  65       32       59 1
  66       32       60 1
  67       33       61 1
  68       33       62 1
  69       36       63 1

@<TRIPOS>MOLECULE

  63   69
SMALL
USER_CHARGES
@<TRIPOS>ATOM
   1 C1           1.5389     2.7586     3.6735 C.3          1    LIG   0.0000
   2 C2           2.9186     2.4054     3.1411 C.2          1    LIG   0.0000
   3 N3           4.0398     2.7733     3.7153 N.2          1    LIG   0.0000
   4 N4           5.0294     2.3038     2.9902 N.pl3        1    LIG   0.0000
   5 C5           6.3795     2.5054     3.3008 C.ar         1    LIG   0.0000
   6 C6           6.6917     3.2403     4.4399 C.ar         1    LIG   0.0000
   7 C7           8.0301     3.4446     4.7587 C.ar         1    LIG   0.0000
   8 C8           9.0263     2.9176     3.9453 C.ar         1    LIG   0.0000
   9 C9           8.6513     2.1915     2.8204 C.ar         1    LIG   0.0000
  10 N10          7.3557     2.0051     2.5281 N.ar         1    LIG   0.0000
  11 C11          4.5773     1.5997     1.9097 C.ar         1    LIG   0.0000
  12 N12          5.1582     0.9310     0.8970 N.ar         1    LIG   0.0000
  13 C13          4.4672     0.2953    -0.0661 C.ar         1    LIG   0.0000
  14 C14          5.1339    -0.4552    -1.2030 C.3          1    LIG   0.0000
  15 C15          6.4388     0.0394    -1.7446 C.3          1    LIG   0.0000
  16 C16          6.4015    -1.1984    -0.8890 C.3          1    LIG   0.0000
  17 C17          3.0776     0.3169    -0.0347 C.ar         1    LIG   0.0000
  18 C18          2.4495     1.0000     1.0000 C.ar         1    LIG   0.0000
  19 C19          1.0000     1.0000     1.0000 C.2          1    LIG   0.0000
  20 O20          0.4000    -0.0375     1.0608 O.2          1    LIG   0.0000
  21 N21          0.3150     2.1844     0.9306 N.am         1    LIG   0.0000
  22 C22         -1.0895     2.1844     0.9306 C.ar         1    LIG   0.0000
  23 C23         -1.7569     3.4025     0.8607 C.ar         1    LIG   0.0000
  24 C24         -3.1473     3.4347     0.8583 C.ar         1    LIG   0.0000
  25 C25         -3.8789     2.2536     0.9272 C.ar         1    LIG   0.0000
  26 N26         -5.2278     2.0445     0.9389 N.2          1    LIG   0.0000
  27 C27         -5.4328     0.7495     1.0160 C.2          1    LIG   0.0000
  28 N28         -6.6908     0.1358     1.0540 N.pl3        1    LIG   0.0000
  29 C29         -6.7757    -1.3301     1.1411 C.3          1    LIG   0.0000
  30 C30         -8.0012    -1.8506     0.4054 C.3          1    LIG   0.0000
  31 O31         -9.1591    -1.0918     0.7288 O.3          1    LIG   0.0000
  32 C32         -9.0282     0.2462     0.2658 C.3          1    LIG   0.0000
  33 C33         -7.8995     0.9720     0.9819 C.3          1    LIG   0.0000
  34 N34         -4.2378     0.0937     1.0540 N.pl3        1    LIG   0.0000
  35 C35         -3.2472     1.0332     0.9991 C.ar         1    LIG   0.0000
  36 C36         -1.8531     1.0203     0.9988 C.ar         1    LIG   0.0000
  37 C37          3.2072     1.6446     1.9794 C.ar         1    LIG   0.0000
  38 H           -4.1096    -0.8963     1.1116 H            1    LIG   0.0000
  39 H            0.8402     2.3709     3.0721 H            1    LIG   0.0000
  40 H            1.4310     2.3842     4.5944 H            1    LIG   0.0000
  41 H            1.4379     3.7530     3.7040 H            1    LIG   0.0000
  42 H            5.9674     3.6148     5.0188 H            1    LIG   0.0000
  43 H            8.2755     3.9706     5.5730 H            1    LIG   0.0000
  44 H            9.9919     3.0576     4.1644 H            1    LIG   0.0000
  45 H            9.3543     1.8046     2.2236 H            1    LIG   0.0000
  46 H            4.5206    -0.8904    -1.8622 H            1    LIG   0.0000
  47 H            6.8411     0.8822    -1.3871 H            1    LIG   0.0000
  48 H            6.6343    -0.0346    -2.7225 H            1    LIG   0.0000
  49 H            6.5706    -2.0952    -1.2980 H            1    LIG   0.0000
  50 H            6.7774    -1.1783     0.0374 H            1    LIG   0.0000
  51 H            2.5425    -0.1480    -0.7401 H            1    LIG   0.0000
  52 H            0.8150     3.0490     0.8800 H            1    LIG   0.0000
  53 H           -1.2370     4.2553     0.8121 H            1    LIG   0.0000
  54 H           -3.6240     4.3123     0.8068 H            1    LIG   0.0000
  55 H           -6.8337    -1.5976     2.1029 H            1    LIG   0.0000
  56 H           -5.9550    -1.7298     0.7328 H            1    LIG   0.0000
  57 H           -7.8386    -1.7930    -0.5796 H            1    LIG   0.0000
  58 H           -8.1546    -2.8047     0.6627 H            1    LIG   0.0000
  59 H           -9.8856     0.7334     0.4318 H            1    LIG   0.0000
  60 H           -8.8364     0.2338    -0.7155 H            1    LIG   0.0000
  61 H           -7.6853     1.8129     0.4850 H            1    LIG   0.0000
  62 H           -8.1948     1.1992     1.9099 H            1    LIG   0.0000
  63 H           -1.3817     0.1398     1.0496 H            1    LIG   0.0000
@<TRIPOS>BOND
   1        1        2 1
   2        2        3 2
   3        3        4 1
   4        4        5 1
   5        5        6 ar
   6        6        7 ar
   7        7        8 ar
   8        8        9 ar
   9        9       10 ar
  10       10        5 ar
  11        4       11 1
  12       11       12 ar
  13       12       13 ar
  14       13       14 1
  15       14       15 1
  16       15       16 1
  17       16       14 1
  18       13       17 ar
  19       17       18 ar
  20       18       19 1
  21       19       20 2
  22       19       21 am
  23       21       22 1
  24       22       23 ar
  25       23       24 ar
  26       24       25 ar
  27       25       26 1
  28       26       27 2
  29       27       28 1
  30       28       29 1
  31       29       30 1
  32       30       31 1
  33       31       32 1
  34       32       33 1
  35       33       28 1
  36       27       34 1
  37       34       35 1
  38       35       25 ar
  39       35       36 ar
  40       36       22 ar
  41       18       37 ar
  42       37        2 1
  43       37       11 ar
  44       34       38 1
  45        1       39 1
  46        1       40 1
  47        1       41 1
  48        6       42 1
  49        7       43 1
  50        8       44 1
  51        9       45 1
  52       14       46 1
  53       15       47 1
  54       15       48 1
  55       16       49 1
  56       16       50 1
  57       17       51 1
  58       21       52 1
  59       23       53 1
  60       24       54 1
  61       29       55 1
  62       29       56 1
  63       30       57 1
  64       30       58 1
  65       32       59 1
  66       32       60 1
  67       33       61 1
  68       33       62 1
  69       36       63 1

@<TRIPOS>MOLECULE

  63   69
SMALL
USER_CHARGES
@<TRIPOS>ATOM
   1 C1           1.5389     2.7586     3.6735 C.3          1    LIG   0.0000
   2 C2           2.9186     2.4054     3.1411 C.2          1    LIG   0.0000
   3 N3           4.0398     2.7733     3.7153 N.2          1    LIG   0.0000
   4 N4           5.0294     2.3038     2.9902 N.pl3        1    LIG   0.0000
   5 C5           6.3795     2.5054     3.3008 C.ar         1    LIG   0.0000
   6 C6           6.6917     3.2403     4.4399 C.ar         1    LIG   0.0000
   7 C7           8.0301     3.4446     4.7587 C.ar         1    LIG   0.0000
   8 C8           9.0263     2.9176     3.9453 C.ar         1    LIG   0.0000
   9 C9           8.6513     2.1915     2.8204 C.ar         1    LIG   0.0000
  10 N10          7.3557     2.0051     2.5281 N.ar         1    LIG   0.0000
  11 C11          4.5773     1.5997     1.9097 C.ar         1    LIG   0.0000
  12 N12          5.1582     0.9310     0.8970 N.ar         1    LIG   0.0000
  13 C13          4.4672     0.2953    -0.0661 C.ar         1    LIG   0.0000
  14 C14          5.1339    -0.4552    -1.2030 C.3          1    LIG   0.0000
  15 C15          4.4751    -1.6771    -1.7631 C.3          1    LIG   0.0000
  16 C16          4.4726    -0.3945    -2.5509 C.3          1    LIG   0.0000
  17 C17          3.0776     0.3169    -0.0347 C.ar         1    LIG   0.0000
  18 C18          2.4495     1.0000     1.0000 C.ar         1    LIG   0.0000
  19 C19          1.0000     1.0000     1.0000 C.2          1    LIG   0.0000
  20 O20          0.4000    -0.0375     1.0608 O.2          1    LIG   0.0000
  21 N21          0.3150     2.1844     0.9306 N.am         1    LIG   0.0000
  22 C22         -0.9483     2.2302     0.3188 C.ar         1    LIG   0.0000
  23 C23         -2.0418     2.6379     1.0751 C.ar         1    LIG   0.0000
  24 C24         -3.3055     2.6940     0.4969 C.ar         1    LIG   0.0000
  25 C25         -3.4856     2.3425    -0.8370 C.ar         1    LIG   0.0000
  26 N26         -4.6142     2.3206    -1.6044 N.2          1    LIG   0.0000
  27 C27         -4.2747     1.9142    -2.8063 C.2          1    LIG   0.0000
  28 N28         -5.1581     1.7581    -3.8811 N.pl3        1    LIG   0.0000
  29 C29         -5.3944     2.8979    -4.7797 C.3          1    LIG   0.0000
  30 C30         -5.6535     2.4189    -6.1996 C.3          1    LIG   0.0000
  31 O31         -6.5798     1.3403    -6.2244 O.3          1    LIG   0.0000
  32 C32         -6.0369     0.1977    -5.5756 C.3          1    LIG   0.0000
  33 C33         -5.8061     0.4551    -4.0944 C.3          1    LIG   0.0000
  34 N34         -2.9344     1.6672    -2.8494 N.pl3        1    LIG   0.0000
  35 C35         -2.4235     1.9335    -1.6103 C.ar         1    LIG   0.0000
  36 C36         -1.1641     1.8849    -1.0143 C.ar         1    LIG   0.0000
  37 C37          3.2072     1.6446     1.9794 C.ar         1    LIG   0.0000
  38 H           -2.4183     1.3485    -3.6445 H            1    LIG   0.0000
  39 H            0.8402     2.3709     3.0721 H            1    LIG   0.0000
  40 H            1.4310     2.3842     4.5944 H            1    LIG   0.0000
  41 H            1.4379     3.7530     3.7040 H            1    LIG   0.0000
  42 H            5.9674     3.6148     5.0188 H            1    LIG   0.0000
  43 H            8.2755     3.9706     5.5730 H            1    LIG   0.0000
  44 H            9.9919     3.0576     4.1644 H            1    LIG   0.0000
  45 H            9.3543     1.8046     2.2236 H            1    LIG   0.0000
  46 H            6.1339    -0.4554    -1.2032 H            1    LIG   0.0000
  47 H            3.6260    -2.0170    -1.3587 H            1    LIG   0.0000
  48 H            5.0318    -2.4499    -2.0679 H            1    LIG   0.0000
  49 H            5.0285    -0.3139    -3.3782 H            1    LIG   0.0000
  50 H            3.6227     0.1190    -2.6690 H            1    LIG   0.0000
  51 H            2.5425    -0.1480    -0.7401 H            1    LIG   0.0000
  52 H            0.7145     3.0164     1.3157 H            1    LIG   0.0000
  53 H           -1.9195     2.8909     2.0348 H            1    LIG   0.0000
  54 H           -4.0894     2.9887     1.0434 H            1    LIG   0.0000
  55 H           -4.5897     3.4916    -4.7754 H            1    LIG   0.0000
  56 H           -6.1892     3.4114    -4.4564 H            1    LIG   0.0000
  57 H           -6.0235     3.1774    -6.7361 H            1    LIG   0.0000
  58 H           -4.7903     2.1153    -6.6028 H            1    LIG   0.0000
  59 H           -5.1644    -0.0358    -6.0047 H            1    LIG   0.0000
  60 H           -6.6735    -0.5668    -5.6772 H            1    LIG   0.0000
  61 H           -6.6862     0.4459    -3.6197 H            1    LIG   0.0000
  62 H           -5.2203    -0.2660    -3.7244 H            1    LIG   0.0000
  63 H           -0.3837     1.5903    -1.5658 H            1    LIG   0.0000
@<TRIPOS>BOND
   1        1        2 1
   2        2        3 2
   3        3        4 1
   4        4        5 1
   5        5        6 ar
   6        6        7 ar
   7        7        8 ar
   8        8        9 ar
   9        9       10 ar
  10       10        5 ar
  11        4       11 1
  12       11       12 ar
  13       12       13 ar
  14       13       14 1
  15       14       15 1
  16       15       16 1
  17       16       14 1
  18       13       17 ar
  19       17       18 ar
  20       18       19 1
  21       19       20 2
  22       19       21 am
  23       21       22 1
  24       22       23 ar
  25       23       24 ar
  26       24       25 ar
  27       25       26 1
  28       26       27 2
  29       27       28 1
  30       28       29 1
  31       29       30 1
  32       30       31 1
  33       31       32 1
  34       32       33 1
  35       33       28 1
  36       27       34 1
  37       34       35 1
  38       35       25 ar
  39       35       36 ar
  40       36       22 ar
  41       18       37 ar
  42       37        2 1
  43       37       11 ar
  44       34       38 1
  45        1       39 1
  46        1       40 1
  47        1       41 1
  48        6       42 1
  49        7       43 1
  50        8       44 1
  51        9       45 1
  52       14       46 1
  53       15       47 1
  54       15       48 1
  55       16       49 1
  56       16       50 1
  57       17       51 1
  58       21       52 1
  59       23       53 1
  60       24       54 1
  61       29       55 1
  62       29       56 1
  63       30       57 1
  64       30       58 1
  65       32       59 1
  66       32       60 1
  67       33       61 1
  68       33       62 1
  69       36       63 1

@<TRIPOS>MOLECULE

  63   69
SMALL
USER_CHARGES
@<TRIPOS>ATOM
   1 C1           1.5389     2.7586     3.6735 C.3          1    LIG   0.0000
   2 C2           2.9186     2.4054     3.1411 C.2          1    LIG   0.0000
   3 N3           4.0398     2.7733     3.7153 N.2          1    LIG   0.0000
   4 N4           5.0294     2.3038     2.9902 N.pl3        1    LIG   0.0000
   5 C5           6.3795     2.5054     3.3008 C.ar         1    LIG   0.0000
   6 C6           7.3396     1.9606     2.4543 C.ar         1    LIG   0.0000
   7 C7           8.6838     2.1569     2.7526 C.ar         1    LIG   0.0000
   8 C8           9.0462     2.8867     3.8785 C.ar         1    LIG   0.0000
   9 C9           8.0407     3.4067     4.6859 C.ar         1    LIG   0.0000
  10 N10          6.7495     3.2068     4.3831 N.ar         1    LIG   0.0000
  11 C11          4.5773     1.5997     1.9097 C.ar         1    LIG   0.0000
  12 N12          5.1582     0.9310     0.8970 N.ar         1    LIG   0.0000
  13 C13          4.4672     0.2953    -0.0661 C.ar         1    LIG   0.0000
  14 C14          5.1339    -0.4552    -1.2030 C.3          1    LIG   0.0000
  15 C15          6.4388     0.0394    -1.7446 C.3          1    LIG   0.0000
  16 C16          6.4015    -1.1984    -0.8890 C.3          1    LIG   0.0000
  17 C17          3.0776     0.3169    -0.0347 C.ar         1    LIG   0.0000
  18 C18          2.4495     1.0000     1.0000 C.ar         1    LIG   0.0000
  19 C19          1.0000     1.0000     1.0000 C.2          1    LIG   0.0000
  20 O20          0.4000    -0.0375     1.0608 O.2          1    LIG   0.0000
  21 N21          0.3150     2.1844     0.9306 N.am         1    LIG   0.0000
  22 C22         -1.0895     2.1844     0.9306 C.ar         1    LIG   0.0000
  23 C23         -1.7569     1.2064     0.2013 C.ar         1    LIG   0.0000
  24 C24         -3.1473     1.1802     0.1823 C.ar         1    LIG   0.0000
  25 C25         -3.8789     2.1293     0.8888 C.ar         1    LIG   0.0000
  26 N26         -5.2278     2.2969     1.0143 N.2          1    LIG   0.0000
  27 C27         -5.4328     3.3385     1.7876 C.2          1    LIG   0.0000
  28 N28         -6.6908     3.8331     2.1530 N.pl3        1    LIG   0.0000
  29 C29         -6.7757     5.0120     3.0285 C.3          1    LIG   0.0000
  30 C30         -8.0012     4.9378     3.9266 C.3          1    LIG   0.0000
  31 O31         -9.1591     4.5644     3.1912 O.3          1    LIG   0.0000
  32 C32         -9.0282     3.2419     2.6858 C.3          1    LIG   0.0000
  33 C33         -7.8995     3.1462     1.6707 C.3          1    LIG   0.0000
  34 N34         -4.2378     3.8653     2.1800 N.pl3        1    LIG   0.0000
  35 C35         -3.2472     3.1103     1.6182 C.ar         1    LIG   0.0000
  36 C36         -1.8531     3.1200     1.6267 C.ar         1    LIG   0.0000
  37 C37          3.2072     1.6446     1.9794 C.ar         1    LIG   0.0000
  38 H           -4.1096     4.6607     2.7723 H            1    LIG   0.0000
  39 H            0.8402     2.3709     3.0721 H            1    LIG   0.0000
  40 H            1.4310     2.3842     4.5944 H            1    LIG   0.0000
  41 H            1.4379     3.7530     3.7040 H            1    LIG   0.0000
  42 H            7.0683     1.4374     1.6464 H            1    LIG   0.0000
  43 H            9.3895     1.7730     2.1571 H            1    LIG   0.0000
  44 H           10.0094     3.0347     4.1031 H            1    LIG   0.0000
  45 H            8.2825     3.9347     5.5000 H            1    LIG   0.0000
  46 H            4.5206    -0.8904    -1.8622 H            1    LIG   0.0000
  47 H            6.8411     0.8822    -1.3871 H            1    LIG   0.0000
  48 H            6.6343    -0.0346    -2.7225 H            1    LIG   0.0000
  49 H            6.5706    -2.0952    -1.2980 H            1    LIG   0.0000
  50 H            6.7774    -1.1783     0.0374 H            1    LIG   0.0000
  51 H            2.5425    -0.1480    -0.7401 H            1    LIG   0.0000
  52 H            0.8150     3.0490     0.8800 H            1    LIG   0.0000
  53 H           -1.2370     0.5219    -0.3097 H            1    LIG   0.0000
  54 H           -3.6240     0.4748    -0.3423 H            1    LIG   0.0000
  55 H           -6.8337     5.8351     2.4636 H            1    LIG   0.0000
  56 H           -5.9550     5.0558     3.5982 H            1    LIG   0.0000
  57 H           -7.8386     4.2606     4.6442 H            1    LIG   0.0000
  58 H           -8.1546     5.8341     4.3428 H            1    LIG   0.0000
  59 H           -9.8856     2.9753     2.2455 H            1    LIG   0.0000
  60 H           -8.8364     2.6205     3.4455 H            1    LIG   0.0000
  61 H           -7.6853     2.1826     1.5108 H            1    LIG   0.0000
  62 H           -8.1948     3.5686     0.8137 H            1    LIG   0.0000
  63 H           -1.3817     3.8271     2.1537 H            1    LIG   0.0000
@<TRIPOS>BOND
   1        1        2 1
   2        2        3 2
   3        3        4 1
   4        4        5 1
   5        5        6 ar
   6        6        7 ar
   7        7        8 ar
   8        8        9 ar
   9        9       10 ar
  10       10        5 ar
  11        4       11 1
  12       11       12 ar
  13       12       13 ar
  14       13       14 1
  15       14       15 1
  16       15       16 1
  17       16       14 1
  18       13       17 ar
  19       17       18 ar
  20       18       19 1
  21       19       20 2
  22       19       21 am
  23       21       22 1
  24       22       23 ar
  25       23       24 ar
  26       24       25 ar
  27       25       26 1
  28       26       27 2
  29       27       28 1
  30       28       29 1
  31       29       30 1
  32       30       31 1
  33       31       32 1
  34       32       33 1
  35       33       28 1
  36       27       34 1
  37       34       35 1
  38       35       25 ar
  39       35       36 ar
  40       36       22 ar
  41       18       37 ar
  42       37        2 1
  43       37       11 ar
  44       34       38 1
  45        1       39 1
  46        1       40 1
  47        1       41 1
  48        6       42 1
  49        7       43 1
  50        8       44 1
  51        9       45 1
  52       14       46 1
  53       15       47 1
  54       15       48 1
  55       16       49 1
  56       16       50 1
  57       17       51 1
  58       21       52 1
  59       23       53 1
  60       24       54 1
  61       29       55 1
  62       29       56 1
  63       30       57 1
  64       30       58 1
  65       32       59 1
  66       32       60 1
  67       33       61 1
  68       33       62 1
  69       36       63 1

@<TRIPOS>MOLECULE

  63   69
SMALL
USER_CHARGES
@<TRIPOS>ATOM
   1 C1           1.5389     2.7586     3.6735 C.3          1    LIG   0.0000
   2 C2           2.9186     2.4054     3.1411 C.2          1    LIG   0.0000
   3 N3           4.0398     2.7733     3.7153 N.2          1    LIG   0.0000
   4 N4           5.0294     2.3038     2.9902 N.pl3        1    LIG   0.0000
   5 C5           6.3795     2.5054     3.3008 C.ar         1    LIG   0.0000
   6 C6           7.3396     1.9606     2.4543 C.ar         1    LIG   0.0000
   7 C7           8.6838     2.1569     2.7526 C.ar         1    LIG   0.0000
   8 C8           9.0462     2.8867     3.8785 C.ar         1    LIG   0.0000
   9 C9           8.0407     3.4067     4.6859 C.ar         1    LIG   0.0000
  10 N10          6.7495     3.2068     4.3831 N.ar         1    LIG   0.0000
  11 C11          4.5773     1.5997     1.9097 C.ar         1    LIG   0.0000
  12 N12          5.1582     0.9310     0.8970 N.ar         1    LIG   0.0000
  13 C13          4.4672     0.2953    -0.0661 C.ar         1    LIG   0.0000
  14 C14          5.1339    -0.4552    -1.2030 C.3          1    LIG   0.0000
  15 C15          4.4751    -1.6771    -1.7631 C.3          1    LIG   0.0000
  16 C16          4.4726    -0.3945    -2.5509 C.3          1    LIG   0.0000
  17 C17          3.0776     0.3169    -0.0347 C.ar         1    LIG   0.0000
  18 C18          2.4495     1.0000     1.0000 C.ar         1    LIG   0.0000
  19 C19          1.0000     1.0000     1.0000 C.2          1    LIG   0.0000
  20 O20          0.4000    -0.0375     1.0608 O.2          1    LIG   0.0000
  21 N21          0.3150     2.1844     0.9306 N.am         1    LIG   0.0000
  22 C22         -0.9483     2.2302     0.3188 C.ar         1    LIG   0.0000
  23 C23         -1.6201     3.4467     0.2648 C.ar         1    LIG   0.0000
  24 C24         -2.8725     3.5238    -0.3352 C.ar         1    LIG   0.0000
  25 C25         -3.4618     2.3888    -0.8826 C.ar         1    LIG   0.0000
  26 N26         -4.6627     2.2278    -1.5112 N.2          1    LIG   0.0000
  27 C27         -4.7724     0.9636    -1.8498 C.2          1    LIG   0.0000
  28 N28         -5.8693     0.4019    -2.5148 N.pl3        1    LIG   0.0000
  29 C29         -5.8610    -1.0339    -2.8342 C.3          1    LIG   0.0000
  30 C30         -6.6045    -1.3086    -4.1325 C.3          1    LIG   0.0000
  31 O31         -7.8479    -0.6205    -4.1716 O.3          1    LIG   0.0000
  32 C32         -7.6430     0.7864    -4.1891 C.3          1    LIG   0.0000
  33 C33         -6.9952     1.2676    -2.8997 C.3          1    LIG   0.0000
  34 N34         -3.6593     0.2813    -1.4565 N.pl3        1    LIG   0.0000
  35 C35         -2.8228     1.1708    -0.8430 C.ar         1    LIG   0.0000
  36 C36         -1.5676     1.1129    -0.2391 C.ar         1    LIG   0.0000
  37 C37          3.2072     1.6446     1.9794 C.ar         1    LIG   0.0000
  38 H           -3.4862    -0.6942    -1.5924 H            1    LIG   0.0000
  39 H            0.8402     2.3709     3.0721 H            1    LIG   0.0000
  40 H            1.4310     2.3842     4.5944 H            1    LIG   0.0000
  41 H            1.4379     3.7530     3.7040 H            1    LIG   0.0000
  42 H            7.0683     1.4374     1.6464 H            1    LIG   0.0000
  43 H            9.3895     1.7730     2.1571 H            1    LIG   0.0000
  44 H           10.0094     3.0347     4.1031 H            1    LIG   0.0000
  45 H            8.2825     3.9347     5.5000 H            1    LIG   0.0000
  46 H            6.1339    -0.4554    -1.2032 H            1    LIG   0.0000
  47 H            3.6260    -2.0170    -1.3587 H            1    LIG   0.0000
  48 H            5.0318    -2.4499    -2.0679 H            1    LIG   0.0000
  49 H            5.0285    -0.3139    -3.3782 H            1    LIG   0.0000
  50 H            3.6227     0.1190    -2.6690 H            1    LIG   0.0000
  51 H            2.5425    -0.1480    -0.7401 H            1    LIG   0.0000
  52 H            0.7145     3.0164     1.3157 H            1    LIG   0.0000
  53 H           -1.2026     4.2661     0.6574 H            1    LIG   0.0000
  54 H           -3.3522     4.4004    -0.3732 H            1    LIG   0.0000
  55 H           -6.3033    -1.5365    -2.0915 H            1    LIG   0.0000
  56 H           -4.9144    -1.3424    -2.9280 H            1    LIG   0.0000
  57 H           -6.0406    -1.0062    -4.9010 H            1    LIG   0.0000
  58 H           -6.7735    -2.2912    -4.2094 H            1    LIG   0.0000
  59 H           -8.5259     1.2427    -4.2998 H            1    LIG   0.0000
  60 H           -7.0485     1.0193    -4.9587 H            1    LIG   0.0000
  61 H           -6.6594     2.2003    -3.0316 H            1    LIG   0.0000
  62 H           -7.6777     1.2593    -2.1689 H            1    LIG   0.0000
  63 H           -1.0921     0.2339    -0.2046 H            1    LIG   0.0000
@<TRIPOS>BOND
   1        1        2 1
   2        2        3 2
   3        3        4 1
   4        4        5 1
   5        5        6 ar
   6        6        7 ar
   7        7        8 ar
   8        8        9 ar
   9        9       10 ar
  10       10        5 ar
  11        4       11 1
  12       11       12 ar
  13       12       13 ar
  14       13       14 1
  15       14       15 1
  16       15       16 1
  17       16       14 1
  18       13       17 ar
  19       17       18 ar
  20       18       19 1
  21       19       20 2
  22       19       21 am
  23       21       22 1
  24       22       23 ar
  25       23       24 ar
  26       24       25 ar
  27       25       26 1
  28       26       27 2
  29       27       28 1
  30       28       29 1
  31       29       30 1
  32       30       31 1
  33       31       32 1
  34       32       33 1
  35       33       28 1
  36       27       34 1
  37       34       35 1
  38       35       25 ar
  39       35       36 ar
  40       36       22 ar
  41       18       37 ar
  42       37        2 1
  43       37       11 ar
  44       34       38 1
  45        1       39 1
  46        1       40 1
  47        1       41 1
  48        6       42 1
  49        7       43 1
  50        8       44 1
  51        9       45 1
  52       14       46 1
  53       15       47 1
  54       15       48 1
  55       16       49 1
  56       16       50 1
  57       17       51 1
  58       21       52 1
  59       23       53 1
  60       24       54 1
  61       29       55 1
  62       29       56 1
  63       30       57 1
  64       30       58 1
  65       32       59 1
  66       32       60 1
  67       33       61 1
  68       33       62 1
  69       36       63 1

@<TRIPOS>MOLECULE

  63   69
SMALL
USER_CHARGES
@<TRIPOS>ATOM
   1 C1           1.5389     2.7586     3.6735 C.3          1    LIG   0.0000
   2 C2           2.9186     2.4054     3.1411 C.2          1    LIG   0.0000
   3 N3           4.0398     2.7733     3.7153 N.2          1    LIG   0.0000
   4 N4           5.0294     2.3038     2.9902 N.pl3        1    LIG   0.0000
   5 C5           6.3795     2.5054     3.3008 C.ar         1    LIG   0.0000
   6 C6           7.3396     1.9606     2.4543 C.ar         1    LIG   0.0000
   7 C7           8.6838     2.1569     2.7526 C.ar         1    LIG   0.0000
   8 C8           9.0462     2.8867     3.8785 C.ar         1    LIG   0.0000
   9 C9           8.0407     3.4067     4.6859 C.ar         1    LIG   0.0000
  10 N10          6.7495     3.2068     4.3831 N.ar         1    LIG   0.0000
  11 C11          4.5773     1.5997     1.9097 C.ar         1    LIG   0.0000
  12 N12          5.1582     0.9310     0.8970 N.ar         1    LIG   0.0000
  13 C13          4.4672     0.2953    -0.0661 C.ar         1    LIG   0.0000
  14 C14          5.1339    -0.4552    -1.2030 C.3          1    LIG   0.0000
  15 C15          4.4128    -0.6071    -2.5060 C.3          1    LIG   0.0000
  16 C16          5.5718     0.3470    -2.3957 C.3          1    LIG   0.0000
  17 C17          3.0776     0.3169    -0.0347 C.ar         1    LIG   0.0000
  18 C18          2.4495     1.0000     1.0000 C.ar         1    LIG   0.0000
  19 C19          1.0000     1.0000     1.0000 C.2          1    LIG   0.0000
  20 O20          0.4000    -0.0375     1.0608 O.2          1    LIG   0.0000
  21 N21          0.3150     2.1844     0.9306 N.am         1    LIG   0.0000
  22 C22         -1.0259     2.2454     1.3438 C.ar         1    LIG   0.0000
  23 C23         -1.6946     3.4620     1.2629 C.ar         1    LIG   0.0000
  24 C24         -3.0231     3.5537     1.6640 C.ar         1    LIG   0.0000
  25 C25         -3.6909     2.4339     2.1491 C.ar         1    LIG   0.0000
  26 N26         -4.9734     2.2885     2.5932 N.2          1    LIG   0.0000
  27 C27         -5.1349     1.0351     2.9508 C.2          1    LIG   0.0000
  28 N28         -6.3165     0.4930     3.4619 N.pl3        1    LIG   0.0000
  29 C29         -6.5214     0.5154     4.9172 C.3          1    LIG   0.0000
  30 C30         -7.3456    -0.6942     5.3317 C.3          1    LIG   0.0000
  31 O31         -7.3071    -1.6976     4.3268 O.3          1    LIG   0.0000
  32 C32         -8.0220    -1.2396     3.1875 C.3          1    LIG   0.0000
  33 C33         -7.2627    -0.1113     2.5093 C.3          1    LIG   0.0000
  34 N34         -3.9770     0.3439     2.7489 N.pl3        1    LIG   0.0000
  35 C35         -3.0556     1.2169     2.2427 C.ar         1    LIG   0.0000
  36 C36         -1.7246     1.1436     1.8346 C.ar         1    LIG   0.0000
  37 C37          3.2072     1.6446     1.9794 C.ar         1    LIG   0.0000
  38 H           -3.8288    -0.6270     2.9372 H            1    LIG   0.0000
  39 H            0.8402     2.3709     3.0721 H            1    LIG   0.0000
  40 H            1.4310     2.3842     4.5944 H            1    LIG   0.0000
  41 H            1.4379     3.7530     3.7040 H            1    LIG   0.0000
  42 H            7.0683     1.4374     1.6464 H            1    LIG   0.0000
  43 H            9.3895     1.7730     2.1571 H            1    LIG   0.0000
  44 H           10.0094     3.0347     4.1031 H            1    LIG   0.0000
  45 H            8.2825     3.9347     5.5000 H            1    LIG   0.0000
  46 H            5.7306    -1.2132    -0.9395 H            1    LIG   0.0000
  47 H            3.4826    -0.2540    -2.6066 H            1    LIG   0.0000
  48 H            4.5082    -1.4505    -3.0347 H            1    LIG   0.0000
  49 H            6.4379     0.1373    -2.8495 H            1    LIG   0.0000
  50 H            5.4123     1.3338    -2.4214 H            1    LIG   0.0000
  51 H            2.5425    -0.1480    -0.7401 H            1    LIG   0.0000
  52 H            0.7698     3.0056     0.5858 H            1    LIG   0.0000
  53 H           -1.2201     4.2711     0.9162 H            1    LIG   0.0000
  54 H           -3.5012     4.4299     1.6034 H            1    LIG   0.0000
  55 H           -7.0055     1.3522     5.1728 H            1    LIG   0.0000
  56 H           -5.6348     0.4889     5.3791 H            1    LIG   0.0000
  57 H           -6.9755    -1.0674     6.1825 H            1    LIG   0.0000
  58 H           -8.2937    -0.4111     5.4766 H            1    LIG   0.0000
  59 H           -8.9210    -0.9077     3.4732 H            1    LIG   0.0000
  60 H           -8.1353    -1.9956     2.5428 H            1    LIG   0.0000
  61 H           -6.7590    -0.4738     1.7252 H            1    LIG   0.0000
  62 H           -7.9098     0.5843     2.1971 H            1    LIG   0.0000
  63 H           -1.2517     0.2646     1.8966 H            1    LIG   0.0000
@<TRIPOS>BOND
   1        1        2 1
   2        2        3 2
   3        3        4 1
   4        4        5 1
   5        5        6 ar
   6        6        7 ar
   7        7        8 ar
   8        8        9 ar
   9        9       10 ar
  10       10        5 ar
  11        4       11 1
  12       11       12 ar
  13       12       13 ar
  14       13       14 1
  15       14       15 1
  16       15       16 1
  17       16       14 1
  18       13       17 ar
  19       17       18 ar
  20       18       19 1
  21       19       20 2
  22       19       21 am
  23       21       22 1
  24       22       23 ar
  25       23       24 ar
  26       24       25 ar
  27       25       26 1
  28       26       27 2
  29       27       28 1
  30       28       29 1
  31       29       30 1
  32       30       31 1
  33       31       32 1
  34       32       33 1
  35       33       28 1
  36       27       34 1
  37       34       35 1
  38       35       25 ar
  39       35       36 ar
  40       36       22 ar
  41       18       37 ar
  42       37        2 1
  43       37       11 ar
  44       34       38 1
  45        1       39 1
  46        1       40 1
  47        1       41 1
  48        6       42 1
  49        7       43 1
  50        8       44 1
  51        9       45 1
  52       14       46 1
  53       15       47 1
  54       15       48 1
  55       16       49 1
  56       16       50 1
  57       17       51 1
  58       21       52 1
  59       23       53 1
  60       24       54 1
  61       29       55 1
  62       29       56 1
  63       30       57 1
  64       30       58 1
  65       32       59 1
  66       32       60 1
  67       33       61 1
  68       33       62 1
  69       36       63 1

@<TRIPOS>MOLECULE

  63   69
SMALL
USER_CHARGES
@<TRIPOS>ATOM
   1 C1           1.5389     2.7586     3.6735 C.3          1    LIG   0.0000
   2 C2           2.9186     2.4054     3.1411 C.2          1    LIG   0.0000
   3 N3           4.0398     2.7733     3.7153 N.2          1    LIG   0.0000
   4 N4           5.0294     2.3038     2.9902 N.pl3        1    LIG   0.0000
   5 C5           6.3795     2.5054     3.3008 C.ar         1    LIG   0.0000
   6 C6           6.7859     3.7807     3.6797 C.ar         1    LIG   0.0000
   7 C7           8.1247     3.9913     3.9926 C.ar         1    LIG   0.0000
   8 C8           9.0282     2.9374     3.9240 C.ar         1    LIG   0.0000
   9 C9           8.5615     1.6855     3.5390 C.ar         1    LIG   0.0000
  10 N10          7.2672     1.5011     3.2404 N.ar         1    LIG   0.0000
  11 C11          4.5773     1.5997     1.9097 C.ar         1    LIG   0.0000
  12 N12          5.1582     0.9310     0.8970 N.ar         1    LIG   0.0000
  13 C13          4.4672     0.2953    -0.0661 C.ar         1    LIG   0.0000
  14 C14          5.1339    -0.4552    -1.2030 C.3          1    LIG   0.0000
  15 C15          6.4388     0.0394    -1.7446 C.3          1    LIG   0.0000
  16 C16          6.4015    -1.1984    -0.8890 C.3          1    LIG   0.0000
  17 C17          3.0776     0.3169    -0.0347 C.ar         1    LIG   0.0000
  18 C18          2.4495     1.0000     1.0000 C.ar         1    LIG   0.0000
  19 C19          1.0000     1.0000     1.0000 C.2          1    LIG   0.0000
  20 O20          0.4000    -0.0375     1.0608 O.2          1    LIG   0.0000
  21 N21          0.3150     2.1844     0.9306 N.am         1    LIG   0.0000
  22 C22         -0.9483     2.3013     1.5330 C.ar         1    LIG   0.0000
  23 C23         -1.8346     1.2339     1.4376 C.ar         1    LIG   0.0000
  24 C24         -3.0927     1.3196     2.0242 C.ar         1    LIG   0.0000
  25 C25         -3.4739     2.4700     2.7072 C.ar         1    LIG   0.0000
  26 N26         -4.6381     2.7748     3.3515 N.2          1    LIG   0.0000
  27 C27         -4.5195     3.9870     3.8429 C.2          1    LIG   0.0000
  28 N28         -5.5078     4.6586     4.5723 N.pl3        1    LIG   0.0000
  29 C29         -6.7890     3.9825     4.8252 C.3          1    LIG   0.0000
  30 C30         -7.3629     4.4026     6.1694 C.3          1    LIG   0.0000
  31 O31         -7.3010     5.8124     6.3444 O.3          1    LIG   0.0000
  32 C32         -5.9503     6.2522     6.4008 C.3          1    LIG   0.0000
  33 C33         -5.2297     6.0094     5.0835 C.3          1    LIG   0.0000
  34 N34         -3.2908     4.4923     3.5356 N.pl3        1    LIG   0.0000
  35 C35         -2.6199     3.5433     2.8171 C.ar         1    LIG   0.0000
  36 C36         -1.3625     3.4387     2.2241 C.ar         1    LIG   0.0000
  37 C37          3.2072     1.6446     1.9794 C.ar         1    LIG   0.0000
  38 H           -2.9434     5.3948     3.7902 H            1    LIG   0.0000
  39 H            0.8402     2.3709     3.0721 H            1    LIG   0.0000
  40 H            1.4310     2.3842     4.5944 H            1    LIG   0.0000
  41 H            1.4379     3.7530     3.7040 H            1    LIG   0.0000
  42 H            6.1277     4.5321     3.7264 H            1    LIG   0.0000
  43 H            8.4371     4.9008     4.2668 H            1    LIG   0.0000
  44 H            9.9931     3.0766     4.1468 H            1    LIG   0.0000
  45 H            9.1971     0.9154     3.4842 H            1    LIG   0.0000
  46 H            4.5206    -0.8904    -1.8622 H            1    LIG   0.0000
  47 H            6.8411     0.8822    -1.3871 H            1    LIG   0.0000
  48 H            6.6343    -0.0346    -2.7225 H            1    LIG   0.0000
  49 H            6.5706    -2.0952    -1.2980 H            1    LIG   0.0000
  50 H            6.7774    -1.1783     0.0374 H            1    LIG   0.0000
  51 H            2.5425    -0.1480    -0.7401 H            1    LIG   0.0000
  52 H            0.7145     2.9657     0.4511 H            1    LIG   0.0000
  53 H           -1.5672     0.4045     0.9470 H            1    LIG   0.0000
  54 H           -3.7270     0.5497     1.9546 H            1    LIG   0.0000
  55 H           -6.6436     2.9932     4.8252 H            1    LIG   0.0000
  56 H           -7.4360     4.2243     4.1021 H            1    LIG   0.0000
  57 H           -8.3179     4.1104     6.2207 H            1    LIG   0.0000
  58 H           -6.8396     3.9614     6.8984 H            1    LIG   0.0000
  59 H           -5.4764     5.7542     7.1271 H            1    LIG   0.0000
  60 H           -5.9355     7.2313     6.6036 H            1    LIG   0.0000
  61 H           -5.5389     6.6832     4.4124 H            1    LIG   0.0000
  62 H           -4.2449     6.1088     5.2261 H            1    LIG   0.0000
  63 H           -0.7319     4.2114     2.2976 H            1    LIG   0.0000
@<TRIPOS>BOND
   1        1        2 1
   2        2        3 2
   3        3        4 1
   4        4        5 1
   5        5        6 ar
   6        6        7 ar
   7        7        8 ar
   8        8        9 ar
   9        9       10 ar
  10       10        5 ar
  11        4       11 1
  12       11       12 ar
  13       12       13 ar
  14       13       14 1
  15       14       15 1
  16       15       16 1
  17       16       14 1
  18       13       17 ar
  19       17       18 ar
  20       18       19 1
  21       19       20 2
  22       19       21 am
  23       21       22 1
  24       22       23 ar
  25       23       24 ar
  26       24       25 ar
  27       25       26 1
  28       26       27 2
  29       27       28 1
  30       28       29 1
  31       29       30 1
  32       30       31 1
  33       31       32 1
  34       32       33 1
  35       33       28 1
  36       27       34 1
  37       34       35 1
  38       35       25 ar
  39       35       36 ar
  40       36       22 ar
  41       18       37 ar
  42       37        2 1
  43       37       11 ar
  44       34       38 1
  45        1       39 1
  46        1       40 1
  47        1       41 1
  48        6       42 1
  49        7       43 1
  50        8       44 1
  51        9       45 1
  52       14       46 1
  53       15       47 1
  54       15       48 1
  55       16       49 1
  56       16       50 1
  57       17       51 1
  58       21       52 1
  59       23       53 1
  60       24       54 1
  61       29       55 1
  62       29       56 1
  63       30       57 1
  64       30       58 1
  65       32       59 1
  66       32       60 1
  67       33       61 1
  68       33       62 1
  69       36       63 1

@<TRIPOS>MOLECULE

  63   69
SMALL
USER_CHARGES
@<TRIPOS>ATOM
   1 C1           1.5389     2.7586     3.6735 C.3          1    LIG   0.0000
   2 C2           2.9186     2.4054     3.1411 C.2          1    LIG   0.0000
   3 N3           4.0398     2.7733     3.7153 N.2          1    LIG   0.0000
   4 N4           5.0294     2.3038     2.9902 N.pl3        1    LIG   0.0000
   5 C5           6.3795     2.5054     3.3008 C.ar         1    LIG   0.0000
   6 C6           6.8528     3.8118     3.3687 C.ar         1    LIG   0.0000
   7 C7           8.1921     4.0232     3.6787 C.ar         1    LIG   0.0000
   8 C8           9.0300     2.9397     3.9145 C.ar         1    LIG   0.0000
   9 C9           8.4982     1.6576     3.8323 C.ar         1    LIG   0.0000
  10 N10          7.2044     1.4727     3.5315 N.ar         1    LIG   0.0000
  11 C11          4.5773     1.5997     1.9097 C.ar         1    LIG   0.0000
  12 N12          5.1582     0.9310     0.8970 N.ar         1    LIG   0.0000
  13 C13          4.4672     0.2953    -0.0661 C.ar         1    LIG   0.0000
  14 C14          5.1339    -0.4552    -1.2030 C.3          1    LIG   0.0000
  15 C15          4.4751    -1.6771    -1.7631 C.3          1    LIG   0.0000
  16 C16          4.4726    -0.3945    -2.5509 C.3          1    LIG   0.0000
  17 C17          3.0776     0.3169    -0.0347 C.ar         1    LIG   0.0000
  18 C18          2.4495     1.0000     1.0000 C.ar         1    LIG   0.0000
  19 C19          1.0000     1.0000     1.0000 C.2          1    LIG   0.0000
  20 O20          0.4000    -0.0375     1.0608 O.2          1    LIG   0.0000
  21 N21          0.3150     2.1844     0.9306 N.am         1    LIG   0.0000
  22 C22         -0.9483     2.2302     0.3188 C.ar         1    LIG   0.0000
  23 C23         -1.0556     1.8660    -1.0191 C.ar         1    LIG   0.0000
  24 C24         -2.2933     1.9006    -1.6525 C.ar         1    LIG   0.0000
  25 C25         -3.4294     2.2997    -0.9561 C.ar         1    LIG   0.0000
  26 N26         -4.7275     2.4096    -1.3639 N.2          1    LIG   0.0000
  27 C27         -5.4358     2.8293    -0.3406 C.2          1    LIG   0.0000
  28 N28         -6.8155     3.0675    -0.3618 N.pl3        1    LIG   0.0000
  29 C29         -7.5609     3.1012     0.9058 C.3          1    LIG   0.0000
  30 C30         -8.9771     2.5778     0.7204 C.3          1    LIG   0.0000
  31 O31         -9.5894     3.1410    -0.4324 O.3          1    LIG   0.0000
  32 C32         -8.9161     2.7239    -1.6132 C.3          1    LIG   0.0000
  33 C33         -7.4915     3.2551    -1.6552 C.3          1    LIG   0.0000
  34 N34         -4.6264     2.9985     0.7436 N.pl3        1    LIG   0.0000
  35 C35         -3.3550     2.6676     0.3678 C.ar         1    LIG   0.0000
  36 C36         -2.1064     2.6253     0.9865 C.ar         1    LIG   0.0000
  37 C37          3.2072     1.6446     1.9794 C.ar         1    LIG   0.0000
  38 H           -4.9118     3.3088     1.6504 H            1    LIG   0.0000
  39 H            0.8402     2.3709     3.0721 H            1    LIG   0.0000
  40 H            1.4310     2.3842     4.5944 H            1    LIG   0.0000
  41 H            1.4379     3.7530     3.7040 H            1    LIG   0.0000
  42 H            6.2415     4.5845     3.1977 H            1    LIG   0.0000
  43 H            8.5521     4.9546     3.7319 H            1    LIG   0.0000
  44 H            9.9946     3.0792     4.1384 H            1    LIG   0.0000
  45 H            9.0860     0.8660     3.9990 H            1    LIG   0.0000
  46 H            6.1339    -0.4554    -1.2032 H            1    LIG   0.0000
  47 H            3.6260    -2.0170    -1.3587 H            1    LIG   0.0000
  48 H            5.0318    -2.4499    -2.0679 H            1    LIG   0.0000
  49 H            5.0285    -0.3139    -3.3782 H            1    LIG   0.0000
  50 H            3.6227     0.1190    -2.6690 H            1    LIG   0.0000
  51 H            2.5425    -0.1480    -0.7401 H            1    LIG   0.0000
  52 H            0.7145     3.0164     1.3157 H            1    LIG   0.0000
  53 H           -0.2426     1.5792    -1.5258 H            1    LIG   0.0000
  54 H           -2.3669     1.6369    -2.6143 H            1    LIG   0.0000
  55 H           -7.6015     4.0442     1.2362 H            1    LIG   0.0000
  56 H           -7.0876     2.5325     1.5786 H            1    LIG   0.0000
  57 H           -8.9462     1.5834     0.6199 H            1    LIG   0.0000
  58 H           -9.5199     2.8147     1.5261 H            1    LIG   0.0000
  59 H           -9.4145     3.0653    -2.4101 H            1    LIG   0.0000
  60 H           -8.8918     1.7245    -1.6383 H            1    LIG   0.0000
  61 H           -6.9819     2.7666    -2.3635 H            1    LIG   0.0000
  62 H           -7.5134     4.2308    -1.8734 H            1    LIG   0.0000
  63 H           -2.0387     2.8891     1.9487 H            1    LIG   0.0000
@<TRIPOS>BOND
   1        1        2 1
   2        2        3 2
   3        3        4 1
   4        4        5 1
   5        5        6 ar
   6        6        7 ar
   7        7        8 ar
   8        8        9 ar
   9        9       10 ar
  10       10        5 ar
  11        4       11 1
  12       11       12 ar
  13       12       13 ar
  14       13       14 1
  15       14       15 1
  16       15       16 1
  17       16       14 1
  18       13       17 ar
  19       17       18 ar
  20       18       19 1
  21       19       20 2
  22       19       21 am
  23       21       22 1
  24       22       23 ar
  25       23       24 ar
  26       24       25 ar
  27       25       26 1
  28       26       27 2
  29       27       28 1
  30       28       29 1
  31       29       30 1
  32       30       31 1
  33       31       32 1
  34       32       33 1
  35       33       28 1
  36       27       34 1
  37       34       35 1
  38       35       25 ar
  39       35       36 ar
  40       36       22 ar
  41       18       37 ar
  42       37        2 1
  43       37       11 ar
  44       34       38 1
  45        1       39 1
  46        1       40 1
  47        1       41 1
  48        6       42 1
  49        7       43 1
  50        8       44 1
  51        9       45 1
  52       14       46 1
  53       15       47 1
  54       15       48 1
  55       16       49 1
  56       16       50 1
  57       17       51 1
  58       21       52 1
  59       23       53 1
  60       24       54 1
  61       29       55 1
  62       29       56 1
  63       30       57 1
  64       30       58 1
  65       32       59 1
  66       32       60 1
  67       33       61 1
  68       33       62 1
  69       36       63 1

@<TRIPOS>MOLECULE

  63   69
SMALL
USER_CHARGES
@<TRIPOS>ATOM
   1 C1           1.5389     2.7586     3.6735 C.3          1    LIG   0.0000
   2 C2           2.9186     2.4054     3.1411 C.2          1    LIG   0.0000
   3 N3           4.0398     2.7733     3.7153 N.2          1    LIG   0.0000
   4 N4           5.0294     2.3038     2.9902 N.pl3        1    LIG   0.0000
   5 C5           6.3795     2.5054     3.3008 C.ar         1    LIG   0.0000
   6 C6           6.8528     3.8118     3.3687 C.ar         1    LIG   0.0000
   7 C7           8.1921     4.0232     3.6787 C.ar         1    LIG   0.0000
   8 C8           9.0300     2.9397     3.9145 C.ar         1    LIG   0.0000
   9 C9           8.4982     1.6576     3.8323 C.ar         1    LIG   0.0000
  10 N10          7.2044     1.4727     3.5315 N.ar         1    LIG   0.0000
  11 C11          4.5773     1.5997     1.9097 C.ar         1    LIG   0.0000
  12 N12          5.1582     0.9310     0.8970 N.ar         1    LIG   0.0000
  13 C13          4.4672     0.2953    -0.0661 C.ar         1    LIG   0.0000
  14 C14          5.1339    -0.4552    -1.2030 C.3          1    LIG   0.0000
  15 C15          4.4128    -0.6071    -2.5060 C.3          1    LIG   0.0000
  16 C16          5.5718     0.3470    -2.3957 C.3          1    LIG   0.0000
  17 C17          3.0776     0.3169    -0.0347 C.ar         1    LIG   0.0000
  18 C18          2.4495     1.0000     1.0000 C.ar         1    LIG   0.0000
  19 C19          1.0000     1.0000     1.0000 C.2          1    LIG   0.0000
  20 O20          0.4000    -0.0375     1.0608 O.2          1    LIG   0.0000
  21 N21          0.3150     2.1844     0.9306 N.am         1    LIG   0.0000
  22 C22         -1.0259     2.2454     1.3438 C.ar         1    LIG   0.0000
  23 C23         -1.9196     3.0081     0.5997 C.ar         1    LIG   0.0000
  24 C24         -3.2540     3.0874     0.9835 C.ar         1    LIG   0.0000
  25 C25         -3.7037     2.4084     2.1113 C.ar         1    LIG   0.0000
  26 N26         -4.9476     2.3408     2.6693 N.2          1    LIG   0.0000
  27 C27         -4.8701     1.5717     3.7311 C.2          1    LIG   0.0000
  28 N28         -5.9414     1.2587     4.5767 N.pl3        1    LIG   0.0000
  29 C29         -7.3185     1.4199     4.0857 C.3          1    LIG   0.0000
  30 C30         -8.2567     1.8216     5.2137 C.3          1    LIG   0.0000
  31 O31         -8.0468     1.0218     6.3701 O.3          1    LIG   0.0000
  32 C32         -6.7510     1.2488     6.9094 C.3          1    LIG   0.0000
  33 C33         -5.6636     0.7977     5.9462 C.3          1    LIG   0.0000
  34 N34         -3.5911     1.1250     3.8861 N.pl3        1    LIG   0.0000
  35 C35         -2.8432     1.6473     2.8687 C.ar         1    LIG   0.0000
  36 C36         -1.5097     1.5782     2.4680 C.ar         1    LIG   0.0000
  37 C37          3.2072     1.6446     1.9794 C.ar         1    LIG   0.0000
  38 H           -3.2601     0.5236     4.6133 H            1    LIG   0.0000
  39 H            0.8402     2.3709     3.0721 H            1    LIG   0.0000
  40 H            1.4310     2.3842     4.5944 H            1    LIG   0.0000
  41 H            1.4379     3.7530     3.7040 H            1    LIG   0.0000
  42 H            6.2415     4.5845     3.1977 H            1    LIG   0.0000
  43 H            8.5521     4.9546     3.7319 H            1    LIG   0.0000
  44 H            9.9946     3.0792     4.1384 H            1    LIG   0.0000
  45 H            9.0860     0.8660     3.9990 H            1    LIG   0.0000
  46 H            5.7306    -1.2132    -0.9395 H            1    LIG   0.0000
  47 H            3.4826    -0.2540    -2.6066 H            1    LIG   0.0000
  48 H            4.5082    -1.4505    -3.0347 H            1    LIG   0.0000
  49 H            6.4379     0.1373    -2.8495 H            1    LIG   0.0000
  50 H            5.4123     1.3338    -2.4214 H            1    LIG   0.0000
  51 H            2.5425    -0.1480    -0.7401 H            1    LIG   0.0000
  52 H            0.7698     3.0056     0.5858 H            1    LIG   0.0000
  53 H           -1.6026     3.4996    -0.2115 H            1    LIG   0.0000
  54 H           -3.8941     3.6359     0.4454 H            1    LIG   0.0000
  55 H           -7.6297     0.5538     3.6945 H            1    LIG   0.0000
  56 H           -7.3332     2.1286     3.3803 H            1    LIG   0.0000
  57 H           -8.0940     2.7804     5.4468 H            1    LIG   0.0000
  58 H           -9.2018     1.7090     4.9069 H            1    LIG   0.0000
  59 H           -6.6603     0.7388     7.7647 H            1    LIG   0.0000
  60 H           -6.6404     2.2260     7.0906 H            1    LIG   0.0000
  61 H           -4.7865     1.1734     6.2453 H            1    LIG   0.0000
  62 H           -5.6174    -0.2012     5.9511 H            1    LIG   0.0000
  63 H           -0.8742     1.0276     3.0093 H            1    LIG   0.0000
@<TRIPOS>BOND
   1        1        2 1
   2        2        3 2
   3        3        4 1
   4        4        5 1
   5        5        6 ar
   6        6        7 ar
   7        7        8 ar
   8        8        9 ar
   9        9       10 ar
  10       10        5 ar
  11        4       11 1
  12       11       12 ar
  13       12       13 ar
  14       13       14 1
  15       14       15 1
  16       15       16 1
  17       16       14 1
  18       13       17 ar
  19       17       18 ar
  20       18       19 1
  21       19       20 2
  22       19       21 am
  23       21       22 1
  24       22       23 ar
  25       23       24 ar
  26       24       25 ar
  27       25       26 1
  28       26       27 2
  29       27       28 1
  30       28       29 1
  31       29       30 1
  32       30       31 1
  33       31       32 1
  34       32       33 1
  35       33       28 1
  36       27       34 1
  37       34       35 1
  38       35       25 ar
  39       35       36 ar
  40       36       22 ar
  41       18       37 ar
  42       37        2 1
  43       37       11 ar
  44       34       38 1
  45        1       39 1
  46        1       40 1
  47        1       41 1
  48        6       42 1
  49        7       43 1
  50        8       44 1
  51        9       45 1
  52       14       46 1
  53       15       47 1
  54       15       48 1
  55       16       49 1
  56       16       50 1
  57       17       51 1
  58       21       52 1
  59       23       53 1
  60       24       54 1
  61       29       55 1
  62       29       56 1
  63       30       57 1
  64       30       58 1
  65       32       59 1
  66       32       60 1
  67       33       61 1
  68       33       62 1
  69       36       63 1

@<TRIPOS>MOLECULE

  63   69
SMALL
USER_CHARGES
@<TRIPOS>ATOM
   1 C1           1.5389     2.7586     3.6735 C.3          1    LIG   0.0000
   2 C2           2.9186     2.4054     3.1411 C.2          1    LIG   0.0000
   3 N3           4.0398     2.7733     3.7153 N.2          1    LIG   0.0000
   4 N4           5.0294     2.3038     2.9902 N.pl3        1    LIG   0.0000
   5 C5           6.3795     2.5054     3.3008 C.ar         1    LIG   0.0000
   6 C6           6.8528     3.8118     3.3687 C.ar         1    LIG   0.0000
   7 C7           8.1921     4.0232     3.6787 C.ar         1    LIG   0.0000
   8 C8           9.0300     2.9397     3.9145 C.ar         1    LIG   0.0000
   9 C9           8.4982     1.6576     3.8323 C.ar         1    LIG   0.0000
  10 N10          7.2044     1.4727     3.5315 N.ar         1    LIG   0.0000
  11 C11          4.5773     1.5997     1.9097 C.ar         1    LIG   0.0000
  12 N12          5.1582     0.9310     0.8970 N.ar         1    LIG   0.0000
  13 C13          4.4672     0.2953    -0.0661 C.ar         1    LIG   0.0000
  14 C14          5.1339    -0.4552    -1.2030 C.3          1    LIG   0.0000
  15 C15          4.4128    -0.6071    -2.5060 C.3          1    LIG   0.0000
  16 C16          5.5718     0.3470    -2.3957 C.3          1    LIG   0.0000
  17 C17          3.0776     0.3169    -0.0347 C.ar         1    LIG   0.0000
  18 C18          2.4495     1.0000     1.0000 C.ar         1    LIG   0.0000
  19 C19          1.0000     1.0000     1.0000 C.2          1    LIG   0.0000
  20 O20          0.4000    -0.0375     1.0608 O.2          1    LIG   0.0000
  21 N21          0.3150     2.1844     0.9306 N.am         1    LIG   0.0000
  22 C22         -0.9483     2.2302     0.3188 C.ar         1    LIG   0.0000
  23 C23         -1.8335     1.1799     0.5359 C.ar         1    LIG   0.0000
  24 C24         -3.0920     1.1970    -0.0560 C.ar         1    LIG   0.0000
  25 C25         -3.4735     2.2600    -0.8681 C.ar         1    LIG   0.0000
  26 N26         -4.6381     2.4882    -1.5427 N.2          1    LIG   0.0000
  27 C27         -4.5185     3.6335    -2.1742 C.2          1    LIG   0.0000
  28 N28         -5.5056     4.2135    -2.9805 N.pl3        1    LIG   0.0000
  29 C29         -6.7897     3.5191    -3.1603 C.3          1    LIG   0.0000
  30 C30         -7.3623     3.7802    -4.5451 C.3          1    LIG   0.0000
  31 O31         -7.2937     5.1599    -4.8812 O.3          1    LIG   0.0000
  32 C32         -5.9408     5.5841    -4.9878 C.3          1    LIG   0.0000
  33 C33         -5.2252     5.4943    -3.6486 C.3          1    LIG   0.0000
  34 N34         -3.2902     4.1716    -1.9274 N.pl3        1    LIG   0.0000
  35 C35         -2.6191     3.3128    -1.1032 C.ar         1    LIG   0.0000
  36 C36         -1.3625     3.2792    -0.5005 C.ar         1    LIG   0.0000
  37 C37          3.2072     1.6446     1.9794 C.ar         1    LIG   0.0000
  38 H           -2.9430     5.0386    -2.2850 H            1    LIG   0.0000
  39 H            0.8402     2.3709     3.0721 H            1    LIG   0.0000
  40 H            1.4310     2.3842     4.5944 H            1    LIG   0.0000
  41 H            1.4379     3.7530     3.7040 H            1    LIG   0.0000
  42 H            6.2415     4.5845     3.1977 H            1    LIG   0.0000
  43 H            8.5521     4.9546     3.7319 H            1    LIG   0.0000
  44 H            9.9946     3.0792     4.1384 H            1    LIG   0.0000
  45 H            9.0860     0.8660     3.9990 H            1    LIG   0.0000
  46 H            5.7306    -1.2132    -0.9395 H            1    LIG   0.0000
  47 H            3.4826    -0.2540    -2.6066 H            1    LIG   0.0000
  48 H            4.5082    -1.4505    -3.0347 H            1    LIG   0.0000
  49 H            6.4379     0.1373    -2.8495 H            1    LIG   0.0000
  50 H            5.4123     1.3338    -2.4214 H            1    LIG   0.0000
  51 H            2.5425    -0.1480    -0.7401 H            1    LIG   0.0000
  52 H            0.7145     3.0164     1.3157 H            1    LIG   0.0000
  53 H           -1.5652     0.4121     1.1177 H            1    LIG   0.0000
  54 H           -3.7264     0.4406     0.1032 H            1    LIG   0.0000
  55 H           -7.4373     3.8460    -2.4719 H            1    LIG   0.0000
  56 H           -6.6486     2.5359    -3.0449 H            1    LIG   0.0000
  57 H           -6.8409     3.2549    -5.2175 H            1    LIG   0.0000
  58 H           -8.3185     3.4879    -4.5626 H            1    LIG   0.0000
  59 H           -5.9209     6.5324    -5.3046 H            1    LIG   0.0000
  60 H           -5.4681     5.0017    -5.6492 H            1    LIG   0.0000
  61 H           -4.2399     5.5748    -3.7992 H            1    LIG   0.0000
  62 H           -5.5350     6.2428    -3.0623 H            1    LIG   0.0000
  63 H           -0.7325     4.0387    -0.6624 H            1    LIG   0.0000
@<TRIPOS>BOND
   1        1        2 1
   2        2        3 2
   3        3        4 1
   4        4        5 1
   5        5        6 ar
   6        6        7 ar
   7        7        8 ar
   8        8        9 ar
   9        9       10 ar
  10       10        5 ar
  11        4       11 1
  12       11       12 ar
  13       12       13 ar
  14       13       14 1
  15       14       15 1
  16       15       16 1
  17       16       14 1
  18       13       17 ar
  19       17       18 ar
  20       18       19 1
  21       19       20 2
  22       19       21 am
  23       21       22 1
  24       22       23 ar
  25       23       24 ar
  26       24       25 ar
  27       25       26 1
  28       26       27 2
  29       27       28 1
  30       28       29 1
  31       29       30 1
  32       30       31 1
  33       31       32 1
  34       32       33 1
  35       33       28 1
  36       27       34 1
  37       34       35 1
  38       35       25 ar
  39       35       36 ar
  40       36       22 ar
  41       18       37 ar
  42       37        2 1
  43       37       11 ar
  44       34       38 1
  45        1       39 1
  46        1       40 1
  47        1       41 1
  48        6       42 1
  49        7       43 1
  50        8       44 1
  51        9       45 1
  52       14       46 1
  53       15       47 1
  54       15       48 1
  55       16       49 1
  56       16       50 1
  57       17       51 1
  58       21       52 1
  59       23       53 1
  60       24       54 1
  61       29       55 1
  62       29       56 1
  63       30       57 1
  64       30       58 1
  65       32       59 1
  66       32       60 1
  67       33       61 1
  68       33       62 1
  69       36       63 1

@<TRIPOS>MOLECULE

  63   69
SMALL
USER_CHARGES
@<TRIPOS>ATOM
   1 C1           1.5389     2.7586     3.6735 C.3          1    LIG   0.0000
   2 C2           2.9186     2.4054     3.1411 C.2          1    LIG   0.0000
   3 N3           4.0398     2.7733     3.7153 N.2          1    LIG   0.0000
   4 N4           5.0294     2.3038     2.9902 N.pl3        1    LIG   0.0000
   5 C5           6.3795     2.5054     3.3008 C.ar         1    LIG   0.0000
   6 C6           7.2957     2.5609     2.2555 C.ar         1    LIG   0.0000
   7 C7           8.6392     2.7631     2.5530 C.ar         1    LIG   0.0000
   8 C8           9.0442     2.9060     3.8748 C.ar         1    LIG   0.0000
   9 C9           8.0813     2.8417     4.8759 C.ar         1    LIG   0.0000
  10 N10          6.7903     2.6455     4.5704 N.ar         1    LIG   0.0000
  11 C11          4.5773     1.5997     1.9097 C.ar         1    LIG   0.0000
  12 N12          5.1582     0.9310     0.8970 N.ar         1    LIG   0.0000
  13 C13          4.4672     0.2953    -0.0661 C.ar         1    LIG   0.0000
  14 C14          5.1339    -0.4552    -1.2030 C.3          1    LIG   0.0000
  15 C15          6.4388     0.0394    -1.7446 C.3          1    LIG   0.0000
  16 C16          6.4015    -1.1984    -0.8890 C.3          1    LIG   0.0000
  17 C17          3.0776     0.3169    -0.0347 C.ar         1    LIG   0.0000
  18 C18          2.4495     1.0000     1.0000 C.ar         1    LIG   0.0000
  19 C19          1.0000     1.0000     1.0000 C.2          1    LIG   0.0000
  20 O20          0.4000    -0.0375     1.0608 O.2          1    LIG   0.0000
  21 N21          0.3150     2.1844     0.9306 N.am         1    LIG   0.0000
  22 C22         -1.0895     2.1844     0.9306 C.ar         1    LIG   0.0000
  23 C23         -1.7569     2.8540     1.9505 C.ar         1    LIG   0.0000
  24 C24         -3.1473     2.8722     1.9773 C.ar         1    LIG   0.0000
  25 C25         -3.8789     2.2220     0.9888 C.ar         1    LIG   0.0000
  26 N26         -5.2278     2.1073     0.8136 N.2          1    LIG   0.0000
  27 C27         -5.4328     1.3931    -0.2694 C.2          1    LIG   0.0000
  28 N28         -6.6908     1.0533    -0.7819 N.pl3        1    LIG   0.0000
  29 C29         -7.3403     1.9487    -1.7514 C.3          1    LIG   0.0000
  30 C30         -8.8530     1.9179    -1.5947 C.3          1    LIG   0.0000
  31 O31         -9.3345     0.5846    -1.4866 O.3          1    LIG   0.0000
  32 C32         -8.8573    -0.0266    -0.2949 C.3          1    LIG   0.0000
  33 C33         -7.3443    -0.1814    -0.3195 C.3          1    LIG   0.0000
  34 N34         -4.2378     1.0323    -0.8183 N.pl3        1    LIG   0.0000
  35 C35         -3.2472     1.5496    -0.0321 C.ar         1    LIG   0.0000
  36 C36         -1.8531     1.5433    -0.0434 C.ar         1    LIG   0.0000
  37 C37          3.2072     1.6446     1.9794 C.ar         1    LIG   0.0000
  38 H           -4.1096     0.4873    -1.6469 H            1    LIG   0.0000
  39 H            0.8402     2.3709     3.0721 H            1    LIG   0.0000
  40 H            1.4310     2.3842     4.5944 H            1    LIG   0.0000
  41 H            1.4379     3.7530     3.7040 H            1    LIG   0.0000
  42 H            6.9940     2.4574     1.3077 H            1    LIG   0.0000
  43 H            9.3138     2.8055     1.8160 H            1    LIG   0.0000
  44 H           10.0073     3.0520     4.1011 H            1    LIG   0.0000
  45 H            8.3541     2.9426     5.8327 H            1    LIG   0.0000
  46 H            4.5206    -0.8904    -1.8622 H            1    LIG   0.0000
  47 H            6.8411     0.8822    -1.3871 H            1    LIG   0.0000
  48 H            6.6343    -0.0346    -2.7225 H            1    LIG   0.0000
  49 H            6.5706    -2.0952    -1.2980 H            1    LIG   0.0000
  50 H            6.7774    -1.1783     0.0374 H            1    LIG   0.0000
  51 H            2.5425    -0.1480    -0.7401 H            1    LIG   0.0000
  52 H            0.8150     3.0490     0.8800 H            1    LIG   0.0000
  53 H           -1.2370     3.3225     2.6648 H            1    LIG   0.0000
  54 H           -3.6240     3.3556     2.7115 H            1    LIG   0.0000
  55 H           -7.1016     1.6561    -2.6774 H            1    LIG   0.0000
  56 H           -7.0151     2.8825    -1.6027 H            1    LIG   0.0000
  57 H           -9.1052     2.4232    -0.7694 H            1    LIG   0.0000
  58 H           -9.2720     2.3519    -2.3923 H            1    LIG   0.0000
  59 H           -9.2755    -0.9303    -0.2025 H            1    LIG   0.0000
  60 H           -9.1138     0.5410     0.4874 H            1    LIG   0.0000
  61 H           -7.0232    -0.3947     0.6032 H            1    LIG   0.0000
  62 H           -7.1029    -0.9295    -0.9377 H            1    LIG   0.0000
  63 H           -1.3817     1.0591    -0.7805 H            1    LIG   0.0000
@<TRIPOS>BOND
   1        1        2 1
   2        2        3 2
   3        3        4 1
   4        4        5 1
   5        5        6 ar
   6        6        7 ar
   7        7        8 ar
   8        8        9 ar
   9        9       10 ar
  10       10        5 ar
  11        4       11 1
  12       11       12 ar
  13       12       13 ar
  14       13       14 1
  15       14       15 1
  16       15       16 1
  17       16       14 1
  18       13       17 ar
  19       17       18 ar
  20       18       19 1
  21       19       20 2
  22       19       21 am
  23       21       22 1
  24       22       23 ar
  25       23       24 ar
  26       24       25 ar
  27       25       26 1
  28       26       27 2
  29       27       28 1
  30       28       29 1
  31       29       30 1
  32       30       31 1
  33       31       32 1
  34       32       33 1
  35       33       28 1
  36       27       34 1
  37       34       35 1
  38       35       25 ar
  39       35       36 ar
  40       36       22 ar
  41       18       37 ar
  42       37        2 1
  43       37       11 ar
  44       34       38 1
  45        1       39 1
  46        1       40 1
  47        1       41 1
  48        6       42 1
  49        7       43 1
  50        8       44 1
  51        9       45 1
  52       14       46 1
  53       15       47 1
  54       15       48 1
  55       16       49 1
  56       16       50 1
  57       17       51 1
  58       21       52 1
  59       23       53 1
  60       24       54 1
  61       29       55 1
  62       29       56 1
  63       30       57 1
  64       30       58 1
  65       32       59 1
  66       32       60 1
  67       33       61 1
  68       33       62 1
  69       36       63 1

@<TRIPOS>MOLECULE

  63   69
SMALL
USER_CHARGES
@<TRIPOS>ATOM
   1 C1           1.5389     2.7586     3.6735 C.3          1    LIG   0.0000
   2 C2           2.9186     2.4054     3.1411 C.2          1    LIG   0.0000
   3 N3           4.0398     2.7733     3.7153 N.2          1    LIG   0.0000
   4 N4           5.0294     2.3038     2.9902 N.pl3        1    LIG   0.0000
   5 C5           6.3795     2.5054     3.3008 C.ar         1    LIG   0.0000
   6 C6           7.2957     2.5609     2.2555 C.ar         1    LIG   0.0000
   7 C7           8.6392     2.7631     2.5530 C.ar         1    LIG   0.0000
   8 C8           9.0442     2.9060     3.8748 C.ar         1    LIG   0.0000
   9 C9           8.0813     2.8417     4.8759 C.ar         1    LIG   0.0000
  10 N10          6.7903     2.6455     4.5704 N.ar         1    LIG   0.0000
  11 C11          4.5773     1.5997     1.9097 C.ar         1    LIG   0.0000
  12 N12          5.1582     0.9310     0.8970 N.ar         1    LIG   0.0000
  13 C13          4.4672     0.2953    -0.0661 C.ar         1    LIG   0.0000
  14 C14          5.1339    -0.4552    -1.2030 C.3          1    LIG   0.0000
  15 C15          5.3946     0.2512    -2.4967 C.3          1    LIG   0.0000
  16 C16          6.5363    -0.0550    -1.5647 C.3          1    LIG   0.0000
  17 C17          3.0776     0.3169    -0.0347 C.ar         1    LIG   0.0000
  18 C18          2.4495     1.0000     1.0000 C.ar         1    LIG   0.0000
  19 C19          1.0000     1.0000     1.0000 C.2          1    LIG   0.0000
  20 O20          0.4000    -0.0375     1.0608 O.2          1    LIG   0.0000
  21 N21          0.3150     2.1844     0.9306 N.am         1    LIG   0.0000
  22 C22         -0.9483     2.3013     1.5330 C.ar         1    LIG   0.0000
  23 C23         -1.1553     1.7030     2.7712 C.ar         1    LIG   0.0000
  24 C24         -2.3954     1.8018     3.3930 C.ar         1    LIG   0.0000
  25 C25         -3.4354     2.4959     2.7831 C.ar         1    LIG   0.0000
  26 N26         -4.7161     2.7207     3.1984 N.2          1    LIG   0.0000
  27 C27         -5.3196     3.4307     2.2728 C.2          1    LIG   0.0000
  28 N28         -6.6471     3.8616     2.3312 N.pl3        1    LIG   0.0000
  29 C29         -7.5669     3.1645     3.2413 C.3          1    LIG   0.0000
  30 C30         -8.9719     3.1885     2.6585 C.3          1    LIG   0.0000
  31 O31         -8.9337     3.4596     1.2645 O.3          1    LIG   0.0000
  32 C32         -8.5170     4.8034     1.0652 C.3          1    LIG   0.0000
  33 C33         -7.0521     4.9599     1.4381 C.3          1    LIG   0.0000
  34 N34         -4.4566     3.6830     1.2476 N.pl3        1    LIG   0.0000
  35 C35         -3.2618     3.0970     1.5575 C.ar         1    LIG   0.0000
  36 C36         -2.0116     2.9887     0.9500 C.ar         1    LIG   0.0000
  37 C37          3.2072     1.6446     1.9794 C.ar         1    LIG   0.0000
  38 H           -4.6613     4.2032     0.4184 H            1    LIG   0.0000
  39 H            0.8402     2.3709     3.0721 H            1    LIG   0.0000
  40 H            1.4310     2.3842     4.5944 H            1    LIG   0.0000
  41 H            1.4379     3.7530     3.7040 H            1    LIG   0.0000
  42 H            6.9940     2.4574     1.3077 H            1    LIG   0.0000
  43 H            9.3138     2.8055     1.8160 H            1    LIG   0.0000
  44 H           10.0073     3.0520     4.1011 H            1    LIG   0.0000
  45 H            8.3541     2.9426     5.8327 H            1    LIG   0.0000
  46 H            4.9239    -1.4307    -1.2690 H            1    LIG   0.0000
  47 H            5.0902     1.1956    -2.6208 H            1    LIG   0.0000
  48 H            5.3095    -0.2429    -3.3620 H            1    LIG   0.0000
  49 H            7.2090    -0.7533    -1.8094 H            1    LIG   0.0000
  50 H            6.9897     0.6852    -1.0682 H            1    LIG   0.0000
  51 H            2.5425    -0.1480    -0.7401 H            1    LIG   0.0000
  52 H            0.7145     2.9657     0.4511 H            1    LIG   0.0000
  53 H           -0.4123     1.2016     3.2146 H            1    LIG   0.0000
  54 H           -2.5404     1.3714     4.2839 H            1    LIG   0.0000
  55 H           -7.5668     3.6223     4.1303 H            1    LIG   0.0000
  56 H           -7.2691     2.2166     3.3545 H            1    LIG   0.0000
  57 H           -9.4044     2.2994     2.8081 H            1    LIG   0.0000
  58 H           -9.5049     3.8999     3.1165 H            1    LIG   0.0000
  59 H           -9.0700     5.4089     1.6375 H            1    LIG   0.0000
  60 H           -8.6410     5.0485     0.1037 H            1    LIG   0.0000
  61 H           -6.4937     4.9371     0.6088 H            1    LIG   0.0000
  62 H           -6.9196     5.8342     1.9052 H            1    LIG   0.0000
  63 H           -1.8720     3.4219     0.0596 H            1    LIG   0.0000
@<TRIPOS>BOND
   1        1        2 1
   2        2        3 2
   3        3        4 1
   4        4        5 1
   5        5        6 ar
   6        6        7 ar
   7        7        8 ar
   8        8        9 ar
   9        9       10 ar
  10       10        5 ar
  11        4       11 1
  12       11       12 ar
  13       12       13 ar
  14       13       14 1
  15       14       15 1
  16       15       16 1
  17       16       14 1
  18       13       17 ar
  19       17       18 ar
  20       18       19 1
  21       19       20 2
  22       19       21 am
  23       21       22 1
  24       22       23 ar
  25       23       24 ar
  26       24       25 ar
  27       25       26 1
  28       26       27 2
  29       27       28 1
  30       28       29 1
  31       29       30 1
  32       30       31 1
  33       31       32 1
  34       32       33 1
  35       33       28 1
  36       27       34 1
  37       34       35 1
  38       35       25 ar
  39       35       36 ar
  40       36       22 ar
  41       18       37 ar
  42       37        2 1
  43       37       11 ar
  44       34       38 1
  45        1       39 1
  46        1       40 1
  47        1       41 1
  48        6       42 1
  49        7       43 1
  50        8       44 1
  51        9       45 1
  52       14       46 1
  53       15       47 1
  54       15       48 1
  55       16       49 1
  56       16       50 1
  57       17       51 1
  58       21       52 1
  59       23       53 1
  60       24       54 1
  61       29       55 1
  62       29       56 1
  63       30       57 1
  64       30       58 1
  65       32       59 1
  66       32       60 1
  67       33       61 1
  68       33       62 1
  69       36       63 1

@<TRIPOS>MOLECULE

  63   69
SMALL
USER_CHARGES
@<TRIPOS>ATOM
   1 C1           1.5389     2.7586     3.6735 C.3          1    LIG   0.0000
   2 C2           2.9186     2.4054     3.1411 C.2          1    LIG   0.0000
   3 N3           4.0398     2.7733     3.7153 N.2          1    LIG   0.0000
   4 N4           5.0294     2.3038     2.9902 N.pl3        1    LIG   0.0000
   5 C5           6.3795     2.5054     3.3008 C.ar         1    LIG   0.0000
   6 C6           7.0167     1.5712     4.1109 C.ar         1    LIG   0.0000
   7 C7           8.3586     1.7609     4.4237 C.ar         1    LIG   0.0000
   8 C8           9.0376     2.8678     3.9283 C.ar         1    LIG   0.0000
   9 C9           8.3464     3.7664     3.1232 C.ar         1    LIG   0.0000
  10 N10          7.0524     3.5677     2.8325 N.ar         1    LIG   0.0000
  11 C11          4.5773     1.5997     1.9097 C.ar         1    LIG   0.0000
  12 N12          5.1582     0.9310     0.8970 N.ar         1    LIG   0.0000
  13 C13          4.4672     0.2953    -0.0661 C.ar         1    LIG   0.0000
  14 C14          5.1339    -0.4552    -1.2030 C.3          1    LIG   0.0000
  15 C15          6.4388     0.0394    -1.7446 C.3          1    LIG   0.0000
  16 C16          6.4015    -1.1984    -0.8890 C.3          1    LIG   0.0000
  17 C17          3.0776     0.3169    -0.0347 C.ar         1    LIG   0.0000
  18 C18          2.4495     1.0000     1.0000 C.ar         1    LIG   0.0000
  19 C19          1.0000     1.0000     1.0000 C.2          1    LIG   0.0000
  20 O20          0.4000    -0.0375     1.0608 O.2          1    LIG   0.0000
  21 N21          0.3150     2.1844     0.9306 N.am         1    LIG   0.0000
  22 C22         -0.9483     2.3013     1.5330 C.ar         1    LIG   0.0000
  23 C23         -1.9421     3.0107     0.8673 C.ar         1    LIG   0.0000
  24 C24         -3.2034     3.1433     1.4381 C.ar         1    LIG   0.0000
  25 C25         -3.4797     2.5710     2.6756 C.ar         1    LIG   0.0000
  26 N26         -4.6256     2.5708     3.4173 N.2          1    LIG   0.0000
  27 C27         -4.3909     1.8949     4.5187 C.2          1    LIG   0.0000
  28 N28         -5.3232     1.6725     5.5390 N.pl3        1    LIG   0.0000
  29 C29         -5.0990     0.5641     6.4790 C.3          1    LIG   0.0000
  30 C30         -5.6342     0.9125     7.8592 C.3          1    LIG   0.0000
  31 O31         -6.9369     1.4777     7.7851 O.3          1    LIG   0.0000
  32 C32         -6.9037     2.7281     7.1095 C.3          1    LIG   0.0000
  33 C33         -6.4862     2.5653     5.6560 C.3          1    LIG   0.0000
  34 N34         -3.1041     1.4437     4.5189 N.pl3        1    LIG   0.0000
  35 C35         -2.5167     1.8649     3.3593 C.ar         1    LIG   0.0000
  36 C36         -1.2588     1.7411     2.7710 C.ar         1    LIG   0.0000
  37 C37          3.2072     1.6446     1.9794 C.ar         1    LIG   0.0000
  38 H           -2.6688     0.9022     5.2381 H            1    LIG   0.0000
  39 H            0.8402     2.3709     3.0721 H            1    LIG   0.0000
  40 H            1.4310     2.3842     4.5944 H            1    LIG   0.0000
  41 H            1.4379     3.7530     3.7040 H            1    LIG   0.0000
  42 H            6.5192     0.7779     4.4618 H            1    LIG   0.0000
  43 H            8.8347     1.1010     5.0049 H            1    LIG   0.0000
  44 H           10.0025     3.0147     4.1461 H            1    LIG   0.0000
  45 H            8.8187     4.5684     2.7575 H            1    LIG   0.0000
  46 H            4.5206    -0.8904    -1.8622 H            1    LIG   0.0000
  47 H            6.8411     0.8822    -1.3871 H            1    LIG   0.0000
  48 H            6.6343    -0.0346    -2.7225 H            1    LIG   0.0000
  49 H            6.5706    -2.0952    -1.2980 H            1    LIG   0.0000
  50 H            6.7774    -1.1783     0.0374 H            1    LIG   0.0000
  51 H            2.5425    -0.1480    -0.7401 H            1    LIG   0.0000
  52 H            0.7145     2.9657     0.4511 H            1    LIG   0.0000
  53 H           -1.7497     3.4256    -0.0221 H            1    LIG   0.0000
  54 H           -3.9159     3.6532     0.9561 H            1    LIG   0.0000
  55 H           -4.1178     0.3821     6.5438 H            1    LIG   0.0000
  56 H           -5.5678    -0.2523     6.1416 H            1    LIG   0.0000
  57 H           -5.6719     0.0805     8.4127 H            1    LIG   0.0000
  58 H           -5.0179     1.5717     8.2899 H            1    LIG   0.0000
  59 H           -6.2502     3.3290     7.5700 H            1    LIG   0.0000
  60 H           -7.8147     3.1393     7.1419 H            1    LIG   0.0000
  61 H           -7.2490     2.1783     5.1380 H            1    LIG   0.0000
  62 H           -6.2495     3.4616     5.2812 H            1    LIG   0.0000
  63 H           -0.5504     1.2294     3.2571 H            1    LIG   0.0000
@<TRIPOS>BOND
   1        1        2 1
   2        2        3 2
   3        3        4 1
   4        4        5 1
   5        5        6 ar
   6        6        7 ar
   7        7        8 ar
   8        8        9 ar
   9        9       10 ar
  10       10        5 ar
  11        4       11 1
  12       11       12 ar
  13       12       13 ar
  14       13       14 1
  15       14       15 1
  16       15       16 1
  17       16       14 1
  18       13       17 ar
  19       17       18 ar
  20       18       19 1
  21       19       20 2
  22       19       21 am
  23       21       22 1
  24       22       23 ar
  25       23       24 ar
  26       24       25 ar
  27       25       26 1
  28       26       27 2
  29       27       28 1
  30       28       29 1
  31       29       30 1
  32       30       31 1
  33       31       32 1
  34       32       33 1
  35       33       28 1
  36       27       34 1
  37       34       35 1
  38       35       25 ar
  39       35       36 ar
  40       36       22 ar
  41       18       37 ar
  42       37        2 1
  43       37       11 ar
  44       34       38 1
  45        1       39 1
  46        1       40 1
  47        1       41 1
  48        6       42 1
  49        7       43 1
  50        8       44 1
  51        9       45 1
  52       14       46 1
  53       15       47 1
  54       15       48 1
  55       16       49 1
  56       16       50 1
  57       17       51 1
  58       21       52 1
  59       23       53 1
  60       24       54 1
  61       29       55 1
  62       29       56 1
  63       30       57 1
  64       30       58 1
  65       32       59 1
  66       32       60 1
  67       33       61 1
  68       33       62 1
  69       36       63 1

@<TRIPOS>MOLECULE

  63   69
SMALL
USER_CHARGES
@<TRIPOS>ATOM
   1 C1           1.5389     2.7586     3.6735 C.3          1    LIG   0.0000
   2 C2           2.9186     2.4054     3.1411 C.2          1    LIG   0.0000
   3 N3           4.0398     2.7733     3.7153 N.2          1    LIG   0.0000
   4 N4           5.0294     2.3038     2.9902 N.pl3        1    LIG   0.0000
   5 C5           6.3795     2.5054     3.3008 C.ar         1    LIG   0.0000
   6 C6           7.0167     1.5712     4.1109 C.ar         1    LIG   0.0000
   7 C7           8.3586     1.7609     4.4237 C.ar         1    LIG   0.0000
   8 C8           9.0376     2.8678     3.9283 C.ar         1    LIG   0.0000
   9 C9           8.3464     3.7664     3.1232 C.ar         1    LIG   0.0000
  10 N10          7.0524     3.5677     2.8325 N.ar         1    LIG   0.0000
  11 C11          4.5773     1.5997     1.9097 C.ar         1    LIG   0.0000
  12 N12          5.1582     0.9310     0.8970 N.ar         1    LIG   0.0000
  13 C13          4.4672     0.2953    -0.0661 C.ar         1    LIG   0.0000
  14 C14          5.1339    -0.4552    -1.2030 C.3          1    LIG   0.0000
  15 C15          4.8181    -0.0788    -2.6170 C.3          1    LIG   0.0000
  16 C16          6.1495     0.2918    -2.0205 C.3          1    LIG   0.0000
  17 C17          3.0776     0.3169    -0.0347 C.ar         1    LIG   0.0000
  18 C18          2.4495     1.0000     1.0000 C.ar         1    LIG   0.0000
  19 C19          1.0000     1.0000     1.0000 C.2          1    LIG   0.0000
  20 O20          0.4000    -0.0375     1.0608 O.2          1    LIG   0.0000
  21 N21          0.3150     2.1844     0.9306 N.am         1    LIG   0.0000
  22 C22         -0.9483     2.2302     0.3188 C.ar         1    LIG   0.0000
  23 C23         -1.1270     3.0607    -0.7823 C.ar         1    LIG   0.0000
  24 C24         -2.3663     3.1271    -1.4099 C.ar         1    LIG   0.0000
  25 C25         -3.4337     2.3674    -0.9422 C.ar         1    LIG   0.0000
  26 N26         -4.7194     2.2723    -1.3910 N.2          1    LIG   0.0000
  27 C27         -5.3529     1.4211    -0.6170 C.2          1    LIG   0.0000
  28 N28         -6.6947     1.0575    -0.7547 N.pl3        1    LIG   0.0000
  29 C29         -7.5838     1.9481    -1.5139 C.3          1    LIG   0.0000
  30 C30         -8.9920     1.8640    -0.9444 C.3          1    LIG   0.0000
  31 O31         -8.9713     1.3309     0.3722 O.3          1    LIG   0.0000
  32 C32         -8.6039    -0.0403     0.3109 C.3          1    LIG   0.0000
  33 C33         -7.1435    -0.1757    -0.0870 C.3          1    LIG   0.0000
  34 N34         -4.5052     0.9470     0.3401 N.pl3        1    LIG   0.0000
  35 C35         -3.2885     1.5379     0.1460 C.ar         1    LIG   0.0000
  36 C36         -2.0387     1.4831     0.7614 C.ar         1    LIG   0.0000
  37 C37          3.2072     1.6446     1.9794 C.ar         1    LIG   0.0000
  38 H           -4.7329     0.2860     1.0550 H            1    LIG   0.0000
  39 H            0.8402     2.3709     3.0721 H            1    LIG   0.0000
  40 H            1.4310     2.3842     4.5944 H            1    LIG   0.0000
  41 H            1.4379     3.7530     3.7040 H            1    LIG   0.0000
  42 H            6.5192     0.7779     4.4618 H            1    LIG   0.0000
  43 H            8.8347     1.1010     5.0049 H            1    LIG   0.0000
  44 H           10.0025     3.0147     4.1461 H            1    LIG   0.0000
  45 H            8.8187     4.5684     2.7575 H            1    LIG   0.0000
  46 H            5.3272    -1.4224    -1.0380 H            1    LIG   0.0000
  47 H            4.1399     0.6314    -2.8056 H            1    LIG   0.0000
  48 H            4.7659    -0.7855    -3.3226 H            1    LIG   0.0000
  49 H            6.9819    -0.1693    -2.3281 H            1    LIG   0.0000
  50 H            6.3559     1.2476    -1.8112 H            1    LIG   0.0000
  51 H            2.5425    -0.1480    -0.7401 H            1    LIG   0.0000
  52 H            0.7145     3.0164     1.3157 H            1    LIG   0.0000
  53 H           -0.3641     3.6103    -1.1229 H            1    LIG   0.0000
  54 H           -2.4909     3.7245    -2.2021 H            1    LIG   0.0000
  55 H           -7.5952     1.6685    -2.4739 H            1    LIG   0.0000
  56 H           -7.2518     2.8888    -1.4446 H            1    LIG   0.0000
  57 H           -9.3917     2.7804    -0.9211 H            1    LIG   0.0000
  58 H           -9.5476     1.2728    -1.5291 H            1    LIG   0.0000
  59 H           -9.1750    -0.5052    -0.3657 H            1    LIG   0.0000
  60 H           -8.7420    -0.4596     1.2082 H            1    LIG   0.0000
  61 H           -6.5893    -0.3315     0.7307 H            1    LIG   0.0000
  62 H           -7.0397    -0.9490    -0.7125 H            1    LIG   0.0000
  63 H           -1.9196     0.8833     1.5526 H            1    LIG   0.0000
@<TRIPOS>BOND
   1        1        2 1
   2        2        3 2
   3        3        4 1
   4        4        5 1
   5        5        6 ar
   6        6        7 ar
   7        7        8 ar
   8        8        9 ar
   9        9       10 ar
  10       10        5 ar
  11        4       11 1
  12       11       12 ar
  13       12       13 ar
  14       13       14 1
  15       14       15 1
  16       15       16 1
  17       16       14 1
  18       13       17 ar
  19       17       18 ar
  20       18       19 1
  21       19       20 2
  22       19       21 am
  23       21       22 1
  24       22       23 ar
  25       23       24 ar
  26       24       25 ar
  27       25       26 1
  28       26       27 2
  29       27       28 1
  30       28       29 1
  31       29       30 1
  32       30       31 1
  33       31       32 1
  34       32       33 1
  35       33       28 1
  36       27       34 1
  37       34       35 1
  38       35       25 ar
  39       35       36 ar
  40       36       22 ar
  41       18       37 ar
  42       37        2 1
  43       37       11 ar
  44       34       38 1
  45        1       39 1
  46        1       40 1
  47        1       41 1
  48        6       42 1
  49        7       43 1
  50        8       44 1
  51        9       45 1
  52       14       46 1
  53       15       47 1
  54       15       48 1
  55       16       49 1
  56       16       50 1
  57       17       51 1
  58       21       52 1
  59       23       53 1
  60       24       54 1
  61       29       55 1
  62       29       56 1
  63       30       57 1
  64       30       58 1
  65       32       59 1
  66       32       60 1
  67       33       61 1
  68       33       62 1
  69       36       63 1

