@<TRIPOS>MOLECULE
*****
 63 69 0 0 0
SMALL
USER_CHARGES

@<TRIPOS>ATOM
      1 C1          1.5389    2.7586    3.6735 C.3     1  LIG1        0.0000
      2 C2          2.9186    2.4054    3.1411 C.2     1  LIG1        0.0000
      3 N3          4.0398    2.7733    3.7153 N.2     1  LIG1        0.0000
      4 N4          5.0294    2.3038    2.9902 N.pl3   1  LIG1        0.0000
      5 C5          6.3795    2.5054    3.3008 C.3     1  LIG1        0.0000
      6 C6          6.6917    3.2403    4.4399 C.3     1  LIG1        0.0000
      7 C7          8.0301    3.4446    4.7587 C.3     1  LIG1        0.0000
      8 C8          9.0263    2.9176    3.9453 C.3     1  LIG1        0.0000
      9 C9          8.6513    2.1915    2.8204 C.3     1  LIG1        0.0000
     10 N10         7.3557    2.0051    2.5281 N.pl3   1  LIG1        0.0000
     11 C11         4.5773    1.5997    1.9097 C.3     1  LIG1        0.0000
     12 N12         5.1582    0.9310    0.8970 N.pl3   1  LIG1        0.0000
     13 C13         4.4672    0.2953   -0.0661 C.3     1  LIG1        0.0000
     14 C14         5.1339   -0.4552   -1.2030 C.3     1  LIG1        0.0000
     15 C15         6.4388    0.0394   -1.7446 C.3     1  LIG1        0.0000
     16 C16         6.4015   -1.1984   -0.8890 C.3     1  LIG1        0.0000
     17 C17         3.0776    0.3169   -0.0347 C.3     1  LIG1        0.0000
     18 C18         2.4495    1.0000    1.0000 C.3     1  LIG1        0.0000
     19 C19         1.0000    1.0000    1.0000 C.2     1  LIG1        0.0000
     20 O20         0.4000   -0.0375    1.0608 O.2     1  LIG1        0.0000
     21 N21         0.3150    2.1844    0.9306 N.am    1  LIG1        0.0000
     22 C22        -1.0895    2.1844    0.9306 C.3     1  LIG1        0.0000
     23 C23        -1.7569    1.2963    1.7671 C.3     1  LIG1        0.0000
     24 C24        -3.1473    1.2731    1.7897 C.3     1  LIG1        0.0000
     25 C25        -3.8789    2.1337    0.9777 C.3     1  LIG1        0.0000
     26 N26        -5.2278    2.2863    0.8344 N.2     1  LIG1        0.0000
     27 C27        -5.4328    3.2288   -0.0571 C.cat   1  LIG1        0.0000
     28 N28        -6.6908    3.6745   -0.4807 N.pl3   1  LIG1        0.0000
     29 C29        -6.7757    4.7414   -1.4896 C.3     1  LIG1        0.0000
     30 C30        -8.0012    5.6130   -1.2607 C.3     1  LIG1        0.0000
     31 O31        -9.1591    4.8239   -1.0206 O.3     1  LIG1        0.0000
     32 C32        -9.0282    4.0966    0.1940 C.3     1  LIG1        0.0000
     33 C33        -7.8995    3.0803    0.1120 C.3     1  LIG1        0.0000
     34 N34        -4.2378    3.7067   -0.5077 N.pl3   1  LIG1        0.0000
     35 C35        -3.2472    3.0223    0.1382 C.3     1  LIG1        0.0000
     36 C36        -1.8531    3.0324    0.1301 C.3     1  LIG1        0.0000
     37 C37         3.2072    1.6446    1.9794 C.3     1  LIG1        0.0000
     38 H          -4.1096    4.4281   -1.1883 H       1  LIG1        0.0000
     39 H           0.8402    2.3709    3.0721 H       1  LIG1        0.0000
     40 H           1.4310    2.3842    4.5944 H       1  LIG1        0.0000
     41 H           1.4379    3.7530    3.7040 H       1  LIG1        0.0000
     42 H           5.9674    3.6148    5.0188 H       1  LIG1        0.0000
     43 H           8.2755    3.9706    5.5730 H       1  LIG1        0.0000
     44 H           9.9919    3.0576    4.1644 H       1  LIG1        0.0000
     45 H           9.3543    1.8046    2.2236 H       1  LIG1        0.0000
     46 H           4.5206   -0.8904   -1.8622 H       1  LIG1        0.0000
     47 H           6.8411    0.8822   -1.3871 H       1  LIG1        0.0000
     48 H           6.6343   -0.0346   -2.7225 H       1  LIG1        0.0000
     49 H           6.5706   -2.0952   -1.2980 H       1  LIG1        0.0000
     50 H           6.7774   -1.1783    0.0374 H       1  LIG1        0.0000
     51 H           2.5425   -0.1480   -0.7401 H       1  LIG1        0.0000
     52 H           0.8150    3.0490    0.8800 H       1  LIG1        0.0000
     53 H          -1.2370    0.6742    2.3525 H       1  LIG1        0.0000
     54 H          -3.6240    0.6340    2.3933 H       1  LIG1        0.0000
     55 H          -6.8337    4.3281   -2.3984 H       1  LIG1        0.0000
     56 H          -5.9550    5.3101   -1.4339 H       1  LIG1        0.0000
     57 H          -7.8386    6.2021   -0.4691 H       1  LIG1        0.0000
     58 H          -8.1546    6.1785   -2.0711 H       1  LIG1        0.0000
     59 H          -9.8856    3.6166    0.3801 H       1  LIG1        0.0000
     60 H          -8.8364    4.7368    0.9378 H       1  LIG1        0.0000
     61 H          -7.6853    2.7555    1.0332 H       1  LIG1        0.0000
     62 H          -8.1948    2.3097   -0.4529 H       1  LIG1        0.0000
     63 H          -1.3817    3.6742   -0.4747 H       1  LIG1        0.0000
@<TRIPOS>BOND
     1     1     2    1
     2     2     3    2
     3     3     4    1
     4     4     5    1
     5     5     6   ar
     6     6     7   ar
     7     7     8   ar
     8     8     9   ar
     9     9    10   ar
    10    10     5   ar
    11     4    11    1
    12    11    12   ar
    13    12    13   ar
    14    13    14    1
    15    14    15    1
    16    15    16    1
    17    16    14    1
    18    13    17   ar
    19    17    18   ar
    20    18    19    1
    21    19    20    2
    22    19    21   am
    23    21    22    1
    24    22    23   ar
    25    23    24   ar
    26    24    25   ar
    27    25    26    1
    28    26    27    2
    29    27    28    1
    30    28    29    1
    31    29    30    1
    32    30    31    1
    33    31    32    1
    34    32    33    1
    35    33    28    1
    36    27    34    1
    37    34    35    1
    38    35    25   ar
    39    35    36   ar
    40    36    22   ar
    41    18    37   ar
    42    37     2    1
    43    37    11   ar
    44    34    38    1
    45     1    39    1
    46     1    40    1
    47     1    41    1
    48     6    42    1
    49     7    43    1
    50     8    44    1
    51     9    45    1
    52    14    46    1
    53    15    47    1
    54    15    48    1
    55    16    49    1
    56    16    50    1
    57    17    51    1
    58    21    52    1
    59    23    53    1
    60    24    54    1
    61    29    55    1
    62    29    56    1
    63    30    57    1
    64    30    58    1
    65    32    59    1
    66    32    60    1
    67    33    61    1
    68    33    62    1
    69    36    63    1
