@<TRIPOS>MOLECULE
*****
 63 69 0 0 0
SMALL
USER_CHARGES

@<TRIPOS>ATOM
      1 C1          1.5389    2.7586    3.6735 C.3     1  LIG1        0.0000
      2 C2          2.9186    2.4054    3.1411 C.2     1  LIG1        0.0000
      3 N3          4.0398    2.7733    3.7153 N.2     1  LIG1        0.0000
      4 N4          5.0294    2.3038    2.9902 N.pl3   1  LIG1        0.0000
      5 C5          6.3795    2.5054    3.3008 C.3     1  LIG1        0.0000
      6 C6          6.7859    3.7807    3.6797 C.3     1  LIG1        0.0000
      7 C7          8.1247    3.9913    3.9926 C.3     1  LIG1        0.0000
      8 C8          9.0282    2.9374    3.9240 C.3     1  LIG1        0.0000
      9 C9          8.5615    1.6855    3.5390 C.3     1  LIG1        0.0000
     10 N10         7.2672    1.5011    3.2404 N.pl3   1  LIG1        0.0000
     11 C11         4.5773    1.5997    1.9097 C.3     1  LIG1        0.0000
     12 N12         5.1582    0.9310    0.8970 N.pl3   1  LIG1        0.0000
     13 C13         4.4672    0.2953   -0.0661 C.3     1  LIG1        0.0000
     14 C14         5.1339   -0.4552   -1.2030 C.3     1  LIG1        0.0000
     15 C15         6.4388    0.0394   -1.7446 C.3     1  LIG1        0.0000
     16 C16         6.4015   -1.1984   -0.8890 C.3     1  LIG1        0.0000
     17 C17         3.0776    0.3169   -0.0347 C.3     1  LIG1        0.0000
     18 C18         2.4495    1.0000    1.0000 C.3     1  LIG1        0.0000
     19 C19         1.0000    1.0000    1.0000 C.2     1  LIG1        0.0000
     20 O20         0.4000   -0.0375    1.0608 O.2     1  LIG1        0.0000
     21 N21         0.3150    2.1844    0.9306 N.am    1  LIG1        0.0000
     22 C22        -0.9483    2.3013    1.5330 C.3     1  LIG1        0.0000
     23 C23        -1.8346    1.2339    1.4376 C.3     1  LIG1        0.0000
     24 C24        -3.0927    1.3196    2.0242 C.3     1  LIG1        0.0000
     25 C25        -3.4739    2.4700    2.7072 C.3     1  LIG1        0.0000
     26 N26        -4.6381    2.7748    3.3515 N.2     1  LIG1        0.0000
     27 C27        -4.5195    3.9870    3.8429 C.cat   1  LIG1        0.0000
     28 N28        -5.5078    4.6586    4.5723 N.pl3   1  LIG1        0.0000
     29 C29        -6.7890    3.9825    4.8252 C.3     1  LIG1        0.0000
     30 C30        -7.3629    4.4026    6.1694 C.3     1  LIG1        0.0000
     31 O31        -7.3010    5.8124    6.3444 O.3     1  LIG1        0.0000
     32 C32        -5.9503    6.2522    6.4008 C.3     1  LIG1        0.0000
     33 C33        -5.2297    6.0094    5.0835 C.3     1  LIG1        0.0000
     34 N34        -3.2908    4.4923    3.5356 N.pl3   1  LIG1        0.0000
     35 C35        -2.6199    3.5433    2.8171 C.3     1  LIG1        0.0000
     36 C36        -1.3625    3.4387    2.2241 C.3     1  LIG1        0.0000
     37 C37         3.2072    1.6446    1.9794 C.3     1  LIG1        0.0000
     38 H          -2.9434    5.3948    3.7902 H       1  LIG1        0.0000
     39 H           0.8402    2.3709    3.0721 H       1  LIG1        0.0000
     40 H           1.4310    2.3842    4.5944 H       1  LIG1        0.0000
     41 H           1.4379    3.7530    3.7040 H       1  LIG1        0.0000
     42 H           6.1277    4.5321    3.7264 H       1  LIG1        0.0000
     43 H           8.4371    4.9008    4.2668 H       1  LIG1        0.0000
     44 H           9.9931    3.0766    4.1468 H       1  LIG1        0.0000
     45 H           9.1971    0.9154    3.4842 H       1  LIG1        0.0000
     46 H           4.5206   -0.8904   -1.8622 H       1  LIG1        0.0000
     47 H           6.8411    0.8822   -1.3871 H       1  LIG1        0.0000
     48 H           6.6343   -0.0346   -2.7225 H       1  LIG1        0.0000
     49 H           6.5706   -2.0952   -1.2980 H       1  LIG1        0.0000
     50 H           6.7774   -1.1783    0.0374 H       1  LIG1        0.0000
     51 H           2.5425   -0.1480   -0.7401 H       1  LIG1        0.0000
     52 H           0.7145    2.9657    0.4511 H       1  LIG1        0.0000
     53 H          -1.5672    0.4045    0.9470 H       1  LIG1        0.0000
     54 H          -3.7270    0.5497    1.9546 H       1  LIG1        0.0000
     55 H          -6.6436    2.9932    4.8252 H       1  LIG1        0.0000
     56 H          -7.4360    4.2243    4.1021 H       1  LIG1        0.0000
     57 H          -8.3179    4.1104    6.2207 H       1  LIG1        0.0000
     58 H          -6.8396    3.9614    6.8984 H       1  LIG1        0.0000
     59 H          -5.4764    5.7542    7.1271 H       1  LIG1        0.0000
     60 H          -5.9355    7.2313    6.6036 H       1  LIG1        0.0000
     61 H          -5.5389    6.6832    4.4124 H       1  LIG1        0.0000
     62 H          -4.2449    6.1088    5.2261 H       1  LIG1        0.0000
     63 H          -0.7319    4.2114    2.2976 H       1  LIG1        0.0000
@<TRIPOS>BOND
     1     1     2    1
     2     2     3    2
     3     3     4    1
     4     4     5    1
     5     5     6   ar
     6     6     7   ar
     7     7     8   ar
     8     8     9   ar
     9     9    10   ar
    10    10     5   ar
    11     4    11    1
    12    11    12   ar
    13    12    13   ar
    14    13    14    1
    15    14    15    1
    16    15    16    1
    17    16    14    1
    18    13    17   ar
    19    17    18   ar
    20    18    19    1
    21    19    20    2
    22    19    21   am
    23    21    22    1
    24    22    23   ar
    25    23    24   ar
    26    24    25   ar
    27    25    26    1
    28    26    27    2
    29    27    28    1
    30    28    29    1
    31    29    30    1
    32    30    31    1
    33    31    32    1
    34    32    33    1
    35    33    28    1
    36    27    34    1
    37    34    35    1
    38    35    25   ar
    39    35    36   ar
    40    36    22   ar
    41    18    37   ar
    42    37     2    1
    43    37    11   ar
    44    34    38    1
    45     1    39    1
    46     1    40    1
    47     1    41    1
    48     6    42    1
    49     7    43    1
    50     8    44    1
    51     9    45    1
    52    14    46    1
    53    15    47    1
    54    15    48    1
    55    16    49    1
    56    16    50    1
    57    17    51    1
    58    21    52    1
    59    23    53    1
    60    24    54    1
    61    29    55    1
    62    29    56    1
    63    30    57    1
    64    30    58    1
    65    32    59    1
    66    32    60    1
    67    33    61    1
    68    33    62    1
    69    36    63    1
