@<TRIPOS>MOLECULE
*****
 63 69 0 0 0
SMALL
USER_CHARGES

@<TRIPOS>ATOM
      1 C1          1.5389    2.7586    3.6735 C.3     1  LIG1        0.0000
      2 C2          2.9186    2.4054    3.1411 C.2     1  LIG1        0.0000
      3 N3          4.0398    2.7733    3.7153 N.2     1  LIG1        0.0000
      4 N4          5.0294    2.3038    2.9902 N.pl3   1  LIG1        0.0000
      5 C5          6.3795    2.5054    3.3008 C.3     1  LIG1        0.0000
      6 C6          6.6917    3.2403    4.4399 C.3     1  LIG1        0.0000
      7 C7          8.0301    3.4446    4.7587 C.3     1  LIG1        0.0000
      8 C8          9.0263    2.9176    3.9453 C.3     1  LIG1        0.0000
      9 C9          8.6513    2.1915    2.8204 C.3     1  LIG1        0.0000
     10 N10         7.3557    2.0051    2.5281 N.pl3   1  LIG1        0.0000
     11 C11         4.5773    1.5997    1.9097 C.3     1  LIG1        0.0000
     12 N12         5.1582    0.9310    0.8970 N.pl3   1  LIG1        0.0000
     13 C13         4.4672    0.2953   -0.0661 C.3     1  LIG1        0.0000
     14 C14         5.1339   -0.4552   -1.2030 C.3     1  LIG1        0.0000
     15 C15         4.4751   -1.6771   -1.7631 C.3     1  LIG1        0.0000
     16 C16         4.4726   -0.3945   -2.5509 C.3     1  LIG1        0.0000
     17 C17         3.0776    0.3169   -0.0347 C.3     1  LIG1        0.0000
     18 C18         2.4495    1.0000    1.0000 C.3     1  LIG1        0.0000
     19 C19         1.0000    1.0000    1.0000 C.2     1  LIG1        0.0000
     20 O20         0.4000   -0.0375    1.0608 O.2     1  LIG1        0.0000
     21 N21         0.3150    2.1844    0.9306 N.am    1  LIG1        0.0000
     22 C22        -0.9483    2.2302    0.3188 C.3     1  LIG1        0.0000
     23 C23        -2.0418    2.6379    1.0751 C.3     1  LIG1        0.0000
     24 C24        -3.3055    2.6940    0.4969 C.3     1  LIG1        0.0000
     25 C25        -3.4856    2.3425   -0.8370 C.3     1  LIG1        0.0000
     26 N26        -4.6142    2.3206   -1.6044 N.2     1  LIG1        0.0000
     27 C27        -4.2747    1.9142   -2.8063 C.cat   1  LIG1        0.0000
     28 N28        -5.1581    1.7581   -3.8811 N.pl3   1  LIG1        0.0000
     29 C29        -5.3944    2.8979   -4.7797 C.3     1  LIG1        0.0000
     30 C30        -5.6535    2.4189   -6.1996 C.3     1  LIG1        0.0000
     31 O31        -6.5798    1.3403   -6.2244 O.3     1  LIG1        0.0000
     32 C32        -6.0369    0.1977   -5.5756 C.3     1  LIG1        0.0000
     33 C33        -5.8061    0.4551   -4.0944 C.3     1  LIG1        0.0000
     34 N34        -2.9344    1.6672   -2.8494 N.pl3   1  LIG1        0.0000
     35 C35        -2.4235    1.9335   -1.6103 C.3     1  LIG1        0.0000
     36 C36        -1.1641    1.8849   -1.0143 C.3     1  LIG1        0.0000
     37 C37         3.2072    1.6446    1.9794 C.3     1  LIG1        0.0000
     38 H          -2.4183    1.3485   -3.6445 H       1  LIG1        0.0000
     39 H           0.8402    2.3709    3.0721 H       1  LIG1        0.0000
     40 H           1.4310    2.3842    4.5944 H       1  LIG1        0.0000
     41 H           1.4379    3.7530    3.7040 H       1  LIG1        0.0000
     42 H           5.9674    3.6148    5.0188 H       1  LIG1        0.0000
     43 H           8.2755    3.9706    5.5730 H       1  LIG1        0.0000
     44 H           9.9919    3.0576    4.1644 H       1  LIG1        0.0000
     45 H           9.3543    1.8046    2.2236 H       1  LIG1        0.0000
     46 H           6.1339   -0.4554   -1.2032 H       1  LIG1        0.0000
     47 H           3.6260   -2.0170   -1.3587 H       1  LIG1        0.0000
     48 H           5.0318   -2.4499   -2.0679 H       1  LIG1        0.0000
     49 H           5.0285   -0.3139   -3.3782 H       1  LIG1        0.0000
     50 H           3.6227    0.1190   -2.6690 H       1  LIG1        0.0000
     51 H           2.5425   -0.1480   -0.7401 H       1  LIG1        0.0000
     52 H           0.7145    3.0164    1.3157 H       1  LIG1        0.0000
     53 H          -1.9195    2.8909    2.0348 H       1  LIG1        0.0000
     54 H          -4.0894    2.9887    1.0434 H       1  LIG1        0.0000
     55 H          -4.5897    3.4916   -4.7754 H       1  LIG1        0.0000
     56 H          -6.1892    3.4114   -4.4564 H       1  LIG1        0.0000
     57 H          -6.0235    3.1774   -6.7361 H       1  LIG1        0.0000
     58 H          -4.7903    2.1153   -6.6028 H       1  LIG1        0.0000
     59 H          -5.1644   -0.0358   -6.0047 H       1  LIG1        0.0000
     60 H          -6.6735   -0.5668   -5.6772 H       1  LIG1        0.0000
     61 H          -6.6862    0.4459   -3.6197 H       1  LIG1        0.0000
     62 H          -5.2203   -0.2660   -3.7244 H       1  LIG1        0.0000
     63 H          -0.3837    1.5903   -1.5658 H       1  LIG1        0.0000
@<TRIPOS>BOND
     1     1     2    1
     2     2     3    2
     3     3     4    1
     4     4     5    1
     5     5     6   ar
     6     6     7   ar
     7     7     8   ar
     8     8     9   ar
     9     9    10   ar
    10    10     5   ar
    11     4    11    1
    12    11    12   ar
    13    12    13   ar
    14    13    14    1
    15    14    15    1
    16    15    16    1
    17    16    14    1
    18    13    17   ar
    19    17    18   ar
    20    18    19    1
    21    19    20    2
    22    19    21   am
    23    21    22    1
    24    22    23   ar
    25    23    24   ar
    26    24    25   ar
    27    25    26    1
    28    26    27    2
    29    27    28    1
    30    28    29    1
    31    29    30    1
    32    30    31    1
    33    31    32    1
    34    32    33    1
    35    33    28    1
    36    27    34    1
    37    34    35    1
    38    35    25   ar
    39    35    36   ar
    40    36    22   ar
    41    18    37   ar
    42    37     2    1
    43    37    11   ar
    44    34    38    1
    45     1    39    1
    46     1    40    1
    47     1    41    1
    48     6    42    1
    49     7    43    1
    50     8    44    1
    51     9    45    1
    52    14    46    1
    53    15    47    1
    54    15    48    1
    55    16    49    1
    56    16    50    1
    57    17    51    1
    58    21    52    1
    59    23    53    1
    60    24    54    1
    61    29    55    1
    62    29    56    1
    63    30    57    1
    64    30    58    1
    65    32    59    1
    66    32    60    1
    67    33    61    1
    68    33    62    1
    69    36    63    1
