@<TRIPOS>MOLECULE
*****
 63 69 0 0 0
SMALL
USER_CHARGES

@<TRIPOS>ATOM
      1 C1          1.5389    2.7586    3.6735 C.3     1  LIG1        0.0000
      2 C2          2.9186    2.4054    3.1411 C.2     1  LIG1        0.0000
      3 N3          4.0398    2.7733    3.7153 N.2     1  LIG1        0.0000
      4 N4          5.0294    2.3038    2.9902 N.pl3   1  LIG1        0.0000
      5 C5          6.3795    2.5054    3.3008 C.3     1  LIG1        0.0000
      6 C6          7.2957    2.5609    2.2555 C.3     1  LIG1        0.0000
      7 C7          8.6392    2.7631    2.5530 C.3     1  LIG1        0.0000
      8 C8          9.0442    2.9060    3.8748 C.3     1  LIG1        0.0000
      9 C9          8.0813    2.8417    4.8759 C.3     1  LIG1        0.0000
     10 N10         6.7903    2.6455    4.5704 N.pl3   1  LIG1        0.0000
     11 C11         4.5773    1.5997    1.9097 C.3     1  LIG1        0.0000
     12 N12         5.1582    0.9310    0.8970 N.pl3   1  LIG1        0.0000
     13 C13         4.4672    0.2953   -0.0661 C.3     1  LIG1        0.0000
     14 C14         5.1339   -0.4552   -1.2030 C.3     1  LIG1        0.0000
     15 C15         6.4388    0.0394   -1.7446 C.3     1  LIG1        0.0000
     16 C16         6.4015   -1.1984   -0.8890 C.3     1  LIG1        0.0000
     17 C17         3.0776    0.3169   -0.0347 C.3     1  LIG1        0.0000
     18 C18         2.4495    1.0000    1.0000 C.3     1  LIG1        0.0000
     19 C19         1.0000    1.0000    1.0000 C.2     1  LIG1        0.0000
     20 O20         0.4000   -0.0375    1.0608 O.2     1  LIG1        0.0000
     21 N21         0.3150    2.1844    0.9306 N.am    1  LIG1        0.0000
     22 C22        -1.0895    2.1844    0.9306 C.3     1  LIG1        0.0000
     23 C23        -1.7569    2.8540    1.9505 C.3     1  LIG1        0.0000
     24 C24        -3.1473    2.8722    1.9773 C.3     1  LIG1        0.0000
     25 C25        -3.8789    2.2220    0.9888 C.3     1  LIG1        0.0000
     26 N26        -5.2278    2.1073    0.8136 N.2     1  LIG1        0.0000
     27 C27        -5.4328    1.3931   -0.2694 C.cat   1  LIG1        0.0000
     28 N28        -6.6908    1.0533   -0.7819 N.pl3   1  LIG1        0.0000
     29 C29        -7.3403    1.9487   -1.7514 C.3     1  LIG1        0.0000
     30 C30        -8.8530    1.9179   -1.5947 C.3     1  LIG1        0.0000
     31 O31        -9.3345    0.5846   -1.4866 O.3     1  LIG1        0.0000
     32 C32        -8.8573   -0.0266   -0.2949 C.3     1  LIG1        0.0000
     33 C33        -7.3443   -0.1814   -0.3195 C.3     1  LIG1        0.0000
     34 N34        -4.2378    1.0323   -0.8183 N.pl3   1  LIG1        0.0000
     35 C35        -3.2472    1.5496   -0.0321 C.3     1  LIG1        0.0000
     36 C36        -1.8531    1.5433   -0.0434 C.3     1  LIG1        0.0000
     37 C37         3.2072    1.6446    1.9794 C.3     1  LIG1        0.0000
     38 H          -4.1096    0.4873   -1.6469 H       1  LIG1        0.0000
     39 H           0.8402    2.3709    3.0721 H       1  LIG1        0.0000
     40 H           1.4310    2.3842    4.5944 H       1  LIG1        0.0000
     41 H           1.4379    3.7530    3.7040 H       1  LIG1        0.0000
     42 H           6.9940    2.4574    1.3077 H       1  LIG1        0.0000
     43 H           9.3138    2.8055    1.8160 H       1  LIG1        0.0000
     44 H          10.0073    3.0520    4.1011 H       1  LIG1        0.0000
     45 H           8.3541    2.9426    5.8327 H       1  LIG1        0.0000
     46 H           4.5206   -0.8904   -1.8622 H       1  LIG1        0.0000
     47 H           6.8411    0.8822   -1.3871 H       1  LIG1        0.0000
     48 H           6.6343   -0.0346   -2.7225 H       1  LIG1        0.0000
     49 H           6.5706   -2.0952   -1.2980 H       1  LIG1        0.0000
     50 H           6.7774   -1.1783    0.0374 H       1  LIG1        0.0000
     51 H           2.5425   -0.1480   -0.7401 H       1  LIG1        0.0000
     52 H           0.8150    3.0490    0.8800 H       1  LIG1        0.0000
     53 H          -1.2370    3.3225    2.6648 H       1  LIG1        0.0000
     54 H          -3.6240    3.3556    2.7115 H       1  LIG1        0.0000
     55 H          -7.1016    1.6561   -2.6774 H       1  LIG1        0.0000
     56 H          -7.0151    2.8825   -1.6027 H       1  LIG1        0.0000
     57 H          -9.1052    2.4232   -0.7694 H       1  LIG1        0.0000
     58 H          -9.2720    2.3519   -2.3923 H       1  LIG1        0.0000
     59 H          -9.2755   -0.9303   -0.2025 H       1  LIG1        0.0000
     60 H          -9.1138    0.5410    0.4874 H       1  LIG1        0.0000
     61 H          -7.0232   -0.3947    0.6032 H       1  LIG1        0.0000
     62 H          -7.1029   -0.9295   -0.9377 H       1  LIG1        0.0000
     63 H          -1.3817    1.0591   -0.7805 H       1  LIG1        0.0000
@<TRIPOS>BOND
     1     1     2    1
     2     2     3    2
     3     3     4    1
     4     4     5    1
     5     5     6   ar
     6     6     7   ar
     7     7     8   ar
     8     8     9   ar
     9     9    10   ar
    10    10     5   ar
    11     4    11    1
    12    11    12   ar
    13    12    13   ar
    14    13    14    1
    15    14    15    1
    16    15    16    1
    17    16    14    1
    18    13    17   ar
    19    17    18   ar
    20    18    19    1
    21    19    20    2
    22    19    21   am
    23    21    22    1
    24    22    23   ar
    25    23    24   ar
    26    24    25   ar
    27    25    26    1
    28    26    27    2
    29    27    28    1
    30    28    29    1
    31    29    30    1
    32    30    31    1
    33    31    32    1
    34    32    33    1
    35    33    28    1
    36    27    34    1
    37    34    35    1
    38    35    25   ar
    39    35    36   ar
    40    36    22   ar
    41    18    37   ar
    42    37     2    1
    43    37    11   ar
    44    34    38    1
    45     1    39    1
    46     1    40    1
    47     1    41    1
    48     6    42    1
    49     7    43    1
    50     8    44    1
    51     9    45    1
    52    14    46    1
    53    15    47    1
    54    15    48    1
    55    16    49    1
    56    16    50    1
    57    17    51    1
    58    21    52    1
    59    23    53    1
    60    24    54    1
    61    29    55    1
    62    29    56    1
    63    30    57    1
    64    30    58    1
    65    32    59    1
    66    32    60    1
    67    33    61    1
    68    33    62    1
    69    36    63    1
