@<TRIPOS>MOLECULE
*****
 63 69 0 0 0
SMALL
USER_CHARGES

@<TRIPOS>ATOM
      1 C1          1.5389    2.7586    3.6735 C.3     1  LIG1        0.0000
      2 C2          2.9186    2.4054    3.1411 C.2     1  LIG1        0.0000
      3 N3          4.0398    2.7733    3.7153 N.2     1  LIG1        0.0000
      4 N4          5.0294    2.3038    2.9902 N.pl3   1  LIG1        0.0000
      5 C5          6.3795    2.5054    3.3008 C.3     1  LIG1        0.0000
      6 C6          6.8528    3.8118    3.3687 C.3     1  LIG1        0.0000
      7 C7          8.1921    4.0232    3.6787 C.3     1  LIG1        0.0000
      8 C8          9.0300    2.9397    3.9145 C.3     1  LIG1        0.0000
      9 C9          8.4982    1.6576    3.8323 C.3     1  LIG1        0.0000
     10 N10         7.2044    1.4727    3.5315 N.pl3   1  LIG1        0.0000
     11 C11         4.5773    1.5997    1.9097 C.3     1  LIG1        0.0000
     12 N12         5.1582    0.9310    0.8970 N.pl3   1  LIG1        0.0000
     13 C13         4.4672    0.2953   -0.0661 C.3     1  LIG1        0.0000
     14 C14         5.1339   -0.4552   -1.2030 C.3     1  LIG1        0.0000
     15 C15         4.4128   -0.6071   -2.5060 C.3     1  LIG1        0.0000
     16 C16         5.5718    0.3470   -2.3957 C.3     1  LIG1        0.0000
     17 C17         3.0776    0.3169   -0.0347 C.3     1  LIG1        0.0000
     18 C18         2.4495    1.0000    1.0000 C.3     1  LIG1        0.0000
     19 C19         1.0000    1.0000    1.0000 C.2     1  LIG1        0.0000
     20 O20         0.4000   -0.0375    1.0608 O.2     1  LIG1        0.0000
     21 N21         0.3150    2.1844    0.9306 N.am    1  LIG1        0.0000
     22 C22        -1.0259    2.2454    1.3438 C.3     1  LIG1        0.0000
     23 C23        -1.9196    3.0081    0.5997 C.3     1  LIG1        0.0000
     24 C24        -3.2540    3.0874    0.9835 C.3     1  LIG1        0.0000
     25 C25        -3.7037    2.4084    2.1113 C.3     1  LIG1        0.0000
     26 N26        -4.9476    2.3408    2.6693 N.2     1  LIG1        0.0000
     27 C27        -4.8701    1.5717    3.7311 C.cat   1  LIG1        0.0000
     28 N28        -5.9414    1.2587    4.5767 N.pl3   1  LIG1        0.0000
     29 C29        -7.3185    1.4199    4.0857 C.3     1  LIG1        0.0000
     30 C30        -8.2567    1.8216    5.2137 C.3     1  LIG1        0.0000
     31 O31        -8.0468    1.0218    6.3701 O.3     1  LIG1        0.0000
     32 C32        -6.7510    1.2488    6.9094 C.3     1  LIG1        0.0000
     33 C33        -5.6636    0.7977    5.9462 C.3     1  LIG1        0.0000
     34 N34        -3.5911    1.1250    3.8861 N.pl3   1  LIG1        0.0000
     35 C35        -2.8432    1.6473    2.8687 C.3     1  LIG1        0.0000
     36 C36        -1.5097    1.5782    2.4680 C.3     1  LIG1        0.0000
     37 C37         3.2072    1.6446    1.9794 C.3     1  LIG1        0.0000
     38 H          -3.2601    0.5236    4.6133 H       1  LIG1        0.0000
     39 H           0.8402    2.3709    3.0721 H       1  LIG1        0.0000
     40 H           1.4310    2.3842    4.5944 H       1  LIG1        0.0000
     41 H           1.4379    3.7530    3.7040 H       1  LIG1        0.0000
     42 H           6.2415    4.5845    3.1977 H       1  LIG1        0.0000
     43 H           8.5521    4.9546    3.7319 H       1  LIG1        0.0000
     44 H           9.9946    3.0792    4.1384 H       1  LIG1        0.0000
     45 H           9.0860    0.8660    3.9990 H       1  LIG1        0.0000
     46 H           5.7306   -1.2132   -0.9395 H       1  LIG1        0.0000
     47 H           3.4826   -0.2540   -2.6066 H       1  LIG1        0.0000
     48 H           4.5082   -1.4505   -3.0347 H       1  LIG1        0.0000
     49 H           6.4379    0.1373   -2.8495 H       1  LIG1        0.0000
     50 H           5.4123    1.3338   -2.4214 H       1  LIG1        0.0000
     51 H           2.5425   -0.1480   -0.7401 H       1  LIG1        0.0000
     52 H           0.7698    3.0056    0.5858 H       1  LIG1        0.0000
     53 H          -1.6026    3.4996   -0.2115 H       1  LIG1        0.0000
     54 H          -3.8941    3.6359    0.4454 H       1  LIG1        0.0000
     55 H          -7.6297    0.5538    3.6945 H       1  LIG1        0.0000
     56 H          -7.3332    2.1286    3.3803 H       1  LIG1        0.0000
     57 H          -8.0940    2.7804    5.4468 H       1  LIG1        0.0000
     58 H          -9.2018    1.7090    4.9069 H       1  LIG1        0.0000
     59 H          -6.6603    0.7388    7.7647 H       1  LIG1        0.0000
     60 H          -6.6404    2.2260    7.0906 H       1  LIG1        0.0000
     61 H          -4.7865    1.1734    6.2453 H       1  LIG1        0.0000
     62 H          -5.6174   -0.2012    5.9511 H       1  LIG1        0.0000
     63 H          -0.8742    1.0276    3.0093 H       1  LIG1        0.0000
@<TRIPOS>BOND
     1     1     2    1
     2     2     3    2
     3     3     4    1
     4     4     5    1
     5     5     6   ar
     6     6     7   ar
     7     7     8   ar
     8     8     9   ar
     9     9    10   ar
    10    10     5   ar
    11     4    11    1
    12    11    12   ar
    13    12    13   ar
    14    13    14    1
    15    14    15    1
    16    15    16    1
    17    16    14    1
    18    13    17   ar
    19    17    18   ar
    20    18    19    1
    21    19    20    2
    22    19    21   am
    23    21    22    1
    24    22    23   ar
    25    23    24   ar
    26    24    25   ar
    27    25    26    1
    28    26    27    2
    29    27    28    1
    30    28    29    1
    31    29    30    1
    32    30    31    1
    33    31    32    1
    34    32    33    1
    35    33    28    1
    36    27    34    1
    37    34    35    1
    38    35    25   ar
    39    35    36   ar
    40    36    22   ar
    41    18    37   ar
    42    37     2    1
    43    37    11   ar
    44    34    38    1
    45     1    39    1
    46     1    40    1
    47     1    41    1
    48     6    42    1
    49     7    43    1
    50     8    44    1
    51     9    45    1
    52    14    46    1
    53    15    47    1
    54    15    48    1
    55    16    49    1
    56    16    50    1
    57    17    51    1
    58    21    52    1
    59    23    53    1
    60    24    54    1
    61    29    55    1
    62    29    56    1
    63    30    57    1
    64    30    58    1
    65    32    59    1
    66    32    60    1
    67    33    61    1
    68    33    62    1
    69    36    63    1
