@<TRIPOS>MOLECULE
*****
 63 69 0 0 0
SMALL
USER_CHARGES

@<TRIPOS>ATOM
      1 C1          1.5389    2.7586    3.6735 C.3     1  LIG1        0.0000
      2 C2          2.9186    2.4054    3.1411 C.2     1  LIG1        0.0000
      3 N3          4.0398    2.7733    3.7153 N.2     1  LIG1        0.0000
      4 N4          5.0294    2.3038    2.9902 N.pl3   1  LIG1        0.0000
      5 C5          6.3795    2.5054    3.3008 C.3     1  LIG1        0.0000
      6 C6          7.2957    2.5609    2.2555 C.3     1  LIG1        0.0000
      7 C7          8.6392    2.7631    2.5530 C.3     1  LIG1        0.0000
      8 C8          9.0442    2.9060    3.8748 C.3     1  LIG1        0.0000
      9 C9          8.0813    2.8417    4.8759 C.3     1  LIG1        0.0000
     10 N10         6.7903    2.6455    4.5704 N.pl3   1  LIG1        0.0000
     11 C11         4.5773    1.5997    1.9097 C.3     1  LIG1        0.0000
     12 N12         5.1582    0.9310    0.8970 N.pl3   1  LIG1        0.0000
     13 C13         4.4672    0.2953   -0.0661 C.3     1  LIG1        0.0000
     14 C14         5.1339   -0.4552   -1.2030 C.3     1  LIG1        0.0000
     15 C15         5.3946    0.2512   -2.4967 C.3     1  LIG1        0.0000
     16 C16         6.5363   -0.0550   -1.5647 C.3     1  LIG1        0.0000
     17 C17         3.0776    0.3169   -0.0347 C.3     1  LIG1        0.0000
     18 C18         2.4495    1.0000    1.0000 C.3     1  LIG1        0.0000
     19 C19         1.0000    1.0000    1.0000 C.2     1  LIG1        0.0000
     20 O20         0.4000   -0.0375    1.0608 O.2     1  LIG1        0.0000
     21 N21         0.3150    2.1844    0.9306 N.am    1  LIG1        0.0000
     22 C22        -0.9483    2.3013    1.5330 C.3     1  LIG1        0.0000
     23 C23        -1.1553    1.7030    2.7712 C.3     1  LIG1        0.0000
     24 C24        -2.3954    1.8018    3.3930 C.3     1  LIG1        0.0000
     25 C25        -3.4354    2.4959    2.7831 C.3     1  LIG1        0.0000
     26 N26        -4.7161    2.7207    3.1984 N.2     1  LIG1        0.0000
     27 C27        -5.3196    3.4307    2.2728 C.cat   1  LIG1        0.0000
     28 N28        -6.6471    3.8616    2.3312 N.pl3   1  LIG1        0.0000
     29 C29        -7.5669    3.1645    3.2413 C.3     1  LIG1        0.0000
     30 C30        -8.9719    3.1885    2.6585 C.3     1  LIG1        0.0000
     31 O31        -8.9337    3.4596    1.2645 O.3     1  LIG1        0.0000
     32 C32        -8.5170    4.8034    1.0652 C.3     1  LIG1        0.0000
     33 C33        -7.0521    4.9599    1.4381 C.3     1  LIG1        0.0000
     34 N34        -4.4566    3.6830    1.2476 N.pl3   1  LIG1        0.0000
     35 C35        -3.2618    3.0970    1.5575 C.3     1  LIG1        0.0000
     36 C36        -2.0116    2.9887    0.9500 C.3     1  LIG1        0.0000
     37 C37         3.2072    1.6446    1.9794 C.3     1  LIG1        0.0000
     38 H          -4.6613    4.2032    0.4184 H       1  LIG1        0.0000
     39 H           0.8402    2.3709    3.0721 H       1  LIG1        0.0000
     40 H           1.4310    2.3842    4.5944 H       1  LIG1        0.0000
     41 H           1.4379    3.7530    3.7040 H       1  LIG1        0.0000
     42 H           6.9940    2.4574    1.3077 H       1  LIG1        0.0000
     43 H           9.3138    2.8055    1.8160 H       1  LIG1        0.0000
     44 H          10.0073    3.0520    4.1011 H       1  LIG1        0.0000
     45 H           8.3541    2.9426    5.8327 H       1  LIG1        0.0000
     46 H           4.9239   -1.4307   -1.2690 H       1  LIG1        0.0000
     47 H           5.0902    1.1956   -2.6208 H       1  LIG1        0.0000
     48 H           5.3095   -0.2429   -3.3620 H       1  LIG1        0.0000
     49 H           7.2090   -0.7533   -1.8094 H       1  LIG1        0.0000
     50 H           6.9897    0.6852   -1.0682 H       1  LIG1        0.0000
     51 H           2.5425   -0.1480   -0.7401 H       1  LIG1        0.0000
     52 H           0.7145    2.9657    0.4511 H       1  LIG1        0.0000
     53 H          -0.4123    1.2016    3.2146 H       1  LIG1        0.0000
     54 H          -2.5404    1.3714    4.2839 H       1  LIG1        0.0000
     55 H          -7.5668    3.6223    4.1303 H       1  LIG1        0.0000
     56 H          -7.2691    2.2166    3.3545 H       1  LIG1        0.0000
     57 H          -9.4044    2.2994    2.8081 H       1  LIG1        0.0000
     58 H          -9.5049    3.8999    3.1165 H       1  LIG1        0.0000
     59 H          -9.0700    5.4089    1.6375 H       1  LIG1        0.0000
     60 H          -8.6410    5.0485    0.1037 H       1  LIG1        0.0000
     61 H          -6.4937    4.9371    0.6088 H       1  LIG1        0.0000
     62 H          -6.9196    5.8342    1.9052 H       1  LIG1        0.0000
     63 H          -1.8720    3.4219    0.0596 H       1  LIG1        0.0000
@<TRIPOS>BOND
     1     1     2    1
     2     2     3    2
     3     3     4    1
     4     4     5    1
     5     5     6   ar
     6     6     7   ar
     7     7     8   ar
     8     8     9   ar
     9     9    10   ar
    10    10     5   ar
    11     4    11    1
    12    11    12   ar
    13    12    13   ar
    14    13    14    1
    15    14    15    1
    16    15    16    1
    17    16    14    1
    18    13    17   ar
    19    17    18   ar
    20    18    19    1
    21    19    20    2
    22    19    21   am
    23    21    22    1
    24    22    23   ar
    25    23    24   ar
    26    24    25   ar
    27    25    26    1
    28    26    27    2
    29    27    28    1
    30    28    29    1
    31    29    30    1
    32    30    31    1
    33    31    32    1
    34    32    33    1
    35    33    28    1
    36    27    34    1
    37    34    35    1
    38    35    25   ar
    39    35    36   ar
    40    36    22   ar
    41    18    37   ar
    42    37     2    1
    43    37    11   ar
    44    34    38    1
    45     1    39    1
    46     1    40    1
    47     1    41    1
    48     6    42    1
    49     7    43    1
    50     8    44    1
    51     9    45    1
    52    14    46    1
    53    15    47    1
    54    15    48    1
    55    16    49    1
    56    16    50    1
    57    17    51    1
    58    21    52    1
    59    23    53    1
    60    24    54    1
    61    29    55    1
    62    29    56    1
    63    30    57    1
    64    30    58    1
    65    32    59    1
    66    32    60    1
    67    33    61    1
    68    33    62    1
    69    36    63    1
