@<TRIPOS>MOLECULE
*****
 63 69 0 0 0
SMALL
USER_CHARGES

@<TRIPOS>ATOM
      1 C1          1.5389    2.7586    3.6735 C.3     1  LIG1        0.0000
      2 C2          2.9186    2.4054    3.1411 C.2     1  LIG1        0.0000
      3 N3          4.0398    2.7733    3.7153 N.2     1  LIG1        0.0000
      4 N4          5.0294    2.3038    2.9902 N.pl3   1  LIG1        0.0000
      5 C5          6.3795    2.5054    3.3008 C.3     1  LIG1        0.0000
      6 C6          7.0167    1.5712    4.1109 C.3     1  LIG1        0.0000
      7 C7          8.3586    1.7609    4.4237 C.3     1  LIG1        0.0000
      8 C8          9.0376    2.8678    3.9283 C.3     1  LIG1        0.0000
      9 C9          8.3464    3.7664    3.1232 C.3     1  LIG1        0.0000
     10 N10         7.0524    3.5677    2.8325 N.pl3   1  LIG1        0.0000
     11 C11         4.5773    1.5997    1.9097 C.3     1  LIG1        0.0000
     12 N12         5.1582    0.9310    0.8970 N.pl3   1  LIG1        0.0000
     13 C13         4.4672    0.2953   -0.0661 C.3     1  LIG1        0.0000
     14 C14         5.1339   -0.4552   -1.2030 C.3     1  LIG1        0.0000
     15 C15         4.8181   -0.0788   -2.6170 C.3     1  LIG1        0.0000
     16 C16         6.1495    0.2918   -2.0205 C.3     1  LIG1        0.0000
     17 C17         3.0776    0.3169   -0.0347 C.3     1  LIG1        0.0000
     18 C18         2.4495    1.0000    1.0000 C.3     1  LIG1        0.0000
     19 C19         1.0000    1.0000    1.0000 C.2     1  LIG1        0.0000
     20 O20         0.4000   -0.0375    1.0608 O.2     1  LIG1        0.0000
     21 N21         0.3150    2.1844    0.9306 N.am    1  LIG1        0.0000
     22 C22        -0.9483    2.2302    0.3188 C.3     1  LIG1        0.0000
     23 C23        -1.1270    3.0607   -0.7823 C.3     1  LIG1        0.0000
     24 C24        -2.3663    3.1271   -1.4099 C.3     1  LIG1        0.0000
     25 C25        -3.4337    2.3674   -0.9422 C.3     1  LIG1        0.0000
     26 N26        -4.7194    2.2723   -1.3910 N.2     1  LIG1        0.0000
     27 C27        -5.3529    1.4211   -0.6170 C.cat   1  LIG1        0.0000
     28 N28        -6.6947    1.0575   -0.7547 N.pl3   1  LIG1        0.0000
     29 C29        -7.5838    1.9481   -1.5139 C.3     1  LIG1        0.0000
     30 C30        -8.9920    1.8640   -0.9444 C.3     1  LIG1        0.0000
     31 O31        -8.9713    1.3309    0.3722 O.3     1  LIG1        0.0000
     32 C32        -8.6039   -0.0403    0.3109 C.3     1  LIG1        0.0000
     33 C33        -7.1435   -0.1757   -0.0870 C.3     1  LIG1        0.0000
     34 N34        -4.5052    0.9470    0.3401 N.pl3   1  LIG1        0.0000
     35 C35        -3.2885    1.5379    0.1460 C.3     1  LIG1        0.0000
     36 C36        -2.0387    1.4831    0.7614 C.3     1  LIG1        0.0000
     37 C37         3.2072    1.6446    1.9794 C.3     1  LIG1        0.0000
     38 H          -4.7329    0.2860    1.0550 H       1  LIG1        0.0000
     39 H           0.8402    2.3709    3.0721 H       1  LIG1        0.0000
     40 H           1.4310    2.3842    4.5944 H       1  LIG1        0.0000
     41 H           1.4379    3.7530    3.7040 H       1  LIG1        0.0000
     42 H           6.5192    0.7779    4.4618 H       1  LIG1        0.0000
     43 H           8.8347    1.1010    5.0049 H       1  LIG1        0.0000
     44 H          10.0025    3.0147    4.1461 H       1  LIG1        0.0000
     45 H           8.8187    4.5684    2.7575 H       1  LIG1        0.0000
     46 H           5.3272   -1.4224   -1.0380 H       1  LIG1        0.0000
     47 H           4.1399    0.6314   -2.8056 H       1  LIG1        0.0000
     48 H           4.7659   -0.7855   -3.3226 H       1  LIG1        0.0000
     49 H           6.9819   -0.1693   -2.3281 H       1  LIG1        0.0000
     50 H           6.3559    1.2476   -1.8112 H       1  LIG1        0.0000
     51 H           2.5425   -0.1480   -0.7401 H       1  LIG1        0.0000
     52 H           0.7145    3.0164    1.3157 H       1  LIG1        0.0000
     53 H          -0.3641    3.6103   -1.1229 H       1  LIG1        0.0000
     54 H          -2.4909    3.7245   -2.2021 H       1  LIG1        0.0000
     55 H          -7.5952    1.6685   -2.4739 H       1  LIG1        0.0000
     56 H          -7.2518    2.8888   -1.4446 H       1  LIG1        0.0000
     57 H          -9.3917    2.7804   -0.9211 H       1  LIG1        0.0000
     58 H          -9.5476    1.2728   -1.5291 H       1  LIG1        0.0000
     59 H          -9.1750   -0.5052   -0.3657 H       1  LIG1        0.0000
     60 H          -8.7420   -0.4596    1.2082 H       1  LIG1        0.0000
     61 H          -6.5893   -0.3315    0.7307 H       1  LIG1        0.0000
     62 H          -7.0397   -0.9490   -0.7125 H       1  LIG1        0.0000
     63 H          -1.9196    0.8833    1.5526 H       1  LIG1        0.0000
@<TRIPOS>BOND
     1     1     2    1
     2     2     3    2
     3     3     4    1
     4     4     5    1
     5     5     6   ar
     6     6     7   ar
     7     7     8   ar
     8     8     9   ar
     9     9    10   ar
    10    10     5   ar
    11     4    11    1
    12    11    12   ar
    13    12    13   ar
    14    13    14    1
    15    14    15    1
    16    15    16    1
    17    16    14    1
    18    13    17   ar
    19    17    18   ar
    20    18    19    1
    21    19    20    2
    22    19    21   am
    23    21    22    1
    24    22    23   ar
    25    23    24   ar
    26    24    25   ar
    27    25    26    1
    28    26    27    2
    29    27    28    1
    30    28    29    1
    31    29    30    1
    32    30    31    1
    33    31    32    1
    34    32    33    1
    35    33    28    1
    36    27    34    1
    37    34    35    1
    38    35    25   ar
    39    35    36   ar
    40    36    22   ar
    41    18    37   ar
    42    37     2    1
    43    37    11   ar
    44    34    38    1
    45     1    39    1
    46     1    40    1
    47     1    41    1
    48     6    42    1
    49     7    43    1
    50     8    44    1
    51     9    45    1
    52    14    46    1
    53    15    47    1
    54    15    48    1
    55    16    49    1
    56    16    50    1
    57    17    51    1
    58    21    52    1
    59    23    53    1
    60    24    54    1
    61    29    55    1
    62    29    56    1
    63    30    57    1
    64    30    58    1
    65    32    59    1
    66    32    60    1
    67    33    61    1
    68    33    62    1
    69    36    63    1
