@<TRIPOS>MOLECULE

  30   32
SMALL
USER_CHARGES
@<TRIPOS>ATOM
   1 C1           0.3843    -0.1048     1.8430 C.3          1    LIG   0.0000
   2 C2           1.0000     1.0000     1.0000 C.3          1    LIG   0.0000
   3 C3           1.8772     1.8772     1.8772 C.ar         1    LIG   0.0000
   4 C4           1.3259     2.9847     2.5125 C.ar         1    LIG   0.0000
   5 C5           2.1224     3.7925     3.3175 C.ar         1    LIG   0.0000
   6 C6           3.4683     3.4785     3.4750 C.ar         1    LIG   0.0000
   7 C7           4.3027     4.3174     4.3134 C.2          1    LIG   0.0000
   8 C8           5.4930     4.7631     3.8018 C.2          1    LIG   0.0000
   9 C9           6.3127     5.5844     4.6228 C.2          1    LIG   0.0000
  10 C10          5.8912     5.9054     5.8878 C.2          1    LIG   0.0000
  11 N11          4.6947     5.4537     6.3840 N.pl3        1    LIG   0.0000
  12 N12          4.1121     5.6423     7.5534 N.2          1    LIG   0.0000
  13 C13          2.9659     5.0034     7.5647 C.2          1    LIG   0.0000
  14 N14          2.8310     4.3912     6.3536 N.2          1    LIG   0.0000
  15 C15          3.8932     4.6673     5.6297 C.2          1    LIG   0.0000
  16 C16          4.0284     2.3731     2.8423 C.ar         1    LIG   0.0000
  17 C17          3.2248     1.5709     2.0394 C.ar         1    LIG   0.0000
  18 H           -0.1931    -0.6822     1.2656 H            1    LIG   0.0000
  19 H            1.1111    -0.6594     2.2481 H            1    LIG   0.0000
  20 H           -0.1703     0.3003     2.5698 H            1    LIG   0.0000
  21 H            1.5546     0.5949     0.2731 H            1    LIG   0.0000
  22 H            0.2731     1.5546     0.5949 H            1    LIG   0.0000
  23 H            0.3571     3.2002     2.3907 H            1    LIG   0.0000
  24 H            1.7319     4.5898     3.7777 H            1    LIG   0.0000
  25 H            5.7776     4.5171     2.8753 H            1    LIG   0.0000
  26 H            7.1887     5.9250     4.2811 H            1    LIG   0.0000
  27 H            6.4705     6.4832     6.4628 H            1    LIG   0.0000
  28 H            2.3126     4.9714     8.3211 H            1    LIG   0.0000
  29 H            4.9974     2.1580     2.9636 H            1    LIG   0.0000
  30 H            3.6155     0.7741     1.5785 H            1    LIG   0.0000
@<TRIPOS>BOND
   1        1        2 1
   2        2        3 1
   3        3        4 ar
   4        4        5 ar
   5        5        6 ar
   6        6        7 1
   7        7        8 2
   8        8        9 1
   9        9       10 2
  10       10       11 1
  11       11       12 1
  12       12       13 2
  13       13       14 1
  14       14       15 2
  15       15        7 1
  16       15       11 1
  17        6       16 ar
  18       16       17 ar
  19       17        3 ar
  20        1       18 1
  21        1       19 1
  22        1       20 1
  23        2       21 1
  24        2       22 1
  25        4       23 1
  26        5       24 1
  27        8       25 1
  28        9       26 1
  29       10       27 1
  30       13       28 1
  31       16       29 1
  32       17       30 1

@<TRIPOS>MOLECULE

  30   32
SMALL
USER_CHARGES
@<TRIPOS>ATOM
   1 C1           0.3843    -0.1048     1.8430 C.3          1    LIG   0.0000
   2 C2           1.0000     1.0000     1.0000 C.3          1    LIG   0.0000
   3 C3           1.8772     1.8772     1.8772 C.ar         1    LIG   0.0000
   4 C4           1.3259     2.9847     2.5125 C.ar         1    LIG   0.0000
   5 C5           2.1224     3.7925     3.3175 C.ar         1    LIG   0.0000
   6 C6           3.4683     3.4785     3.4750 C.ar         1    LIG   0.0000
   7 C7           4.3027     4.3174     4.3134 C.2          1    LIG   0.0000
   8 C8           5.0781     3.7116     5.2669 C.2          1    LIG   0.0000
   9 C9           5.8956     4.5325     6.0905 C.2          1    LIG   0.0000
  10 C10          5.8864     5.8915     5.9065 C.2          1    LIG   0.0000
  11 N11          5.1066     6.4824     4.9448 N.pl3        1    LIG   0.0000
  12 N12          4.9528     7.7495     4.6084 N.2          1    LIG   0.0000
  13 C13          4.0912     7.8252     3.6215 C.2          1    LIG   0.0000
  14 N14          3.6916     6.5535     3.3338 N.2          1    LIG   0.0000
  15 C15          4.3146     5.7298     4.1473 C.2          1    LIG   0.0000
  16 C16          4.0284     2.3731     2.8423 C.ar         1    LIG   0.0000
  17 C17          3.2248     1.5709     2.0394 C.ar         1    LIG   0.0000
  18 H           -0.1931    -0.6822     1.2656 H            1    LIG   0.0000
  19 H            1.1111    -0.6594     2.2481 H            1    LIG   0.0000
  20 H           -0.1703     0.3003     2.5698 H            1    LIG   0.0000
  21 H            1.5546     0.5949     0.2731 H            1    LIG   0.0000
  22 H            0.2731     1.5546     0.5949 H            1    LIG   0.0000
  23 H            0.3571     3.2002     2.3907 H            1    LIG   0.0000
  24 H            1.7319     4.5898     3.7777 H            1    LIG   0.0000
  25 H            5.0692     2.7181     5.3803 H            1    LIG   0.0000
  26 H            6.4721     4.1228     6.7975 H            1    LIG   0.0000
  27 H            6.4625     6.4661     6.4879 H            1    LIG   0.0000
  28 H            3.7844     8.6604     3.1652 H            1    LIG   0.0000
  29 H            4.9974     2.1580     2.9636 H            1    LIG   0.0000
  30 H            3.6155     0.7741     1.5785 H            1    LIG   0.0000
@<TRIPOS>BOND
   1        1        2 1
   2        2        3 1
   3        3        4 ar
   4        4        5 ar
   5        5        6 ar
   6        6        7 1
   7        7        8 2
   8        8        9 1
   9        9       10 2
  10       10       11 1
  11       11       12 1
  12       12       13 2
  13       13       14 1
  14       14       15 2
  15       15        7 1
  16       15       11 1
  17        6       16 ar
  18       16       17 ar
  19       17        3 ar
  20        1       18 1
  21        1       19 1
  22        1       20 1
  23        2       21 1
  24        2       22 1
  25        4       23 1
  26        5       24 1
  27        8       25 1
  28        9       26 1
  29       10       27 1
  30       13       28 1
  31       16       29 1
  32       17       30 1

@<TRIPOS>MOLECULE

  30   32
SMALL
USER_CHARGES
@<TRIPOS>ATOM
   1 C1           0.3843    -0.1048     1.8430 C.3          1    LIG   0.0000
   2 C2           1.0000     1.0000     1.0000 C.3          1    LIG   0.0000
   3 C3           1.8772     1.8772     1.8772 C.ar         1    LIG   0.0000
   4 C4           1.3259     2.9847     2.5125 C.ar         1    LIG   0.0000
   5 C5           2.1224     3.7925     3.3175 C.ar         1    LIG   0.0000
   6 C6           3.4683     3.4785     3.4750 C.ar         1    LIG   0.0000
   7 C7           4.3027     4.3174     4.3134 C.2          1    LIG   0.0000
   8 C8           3.8568     4.6201     5.5732 C.2          1    LIG   0.0000
   9 C9           4.6728     5.4434     6.3959 C.2          1    LIG   0.0000
  10 C10          5.8706     5.9029     5.9109 C.2          1    LIG   0.0000
  11 N11          6.3043     5.5877     4.6481 N.pl3        1    LIG   0.0000
  12 N12          7.4047     5.9198     3.9991 N.2          1    LIG   0.0000
  13 C13          7.3742     5.3755     2.8054 C.2          1    LIG   0.0000
  14 N14          6.2065     4.6780     2.7076 N.2          1    LIG   0.0000
  15 C15          5.5497     4.8096     3.8388 C.2          1    LIG   0.0000
  16 C16          4.0284     2.3731     2.8423 C.ar         1    LIG   0.0000
  17 C17          3.2248     1.5709     2.0394 C.ar         1    LIG   0.0000
  18 H           -0.1931    -0.6822     1.2656 H            1    LIG   0.0000
  19 H            1.1111    -0.6594     2.2481 H            1    LIG   0.0000
  20 H           -0.1703     0.3003     2.5698 H            1    LIG   0.0000
  21 H            1.5546     0.5949     0.2731 H            1    LIG   0.0000
  22 H            0.2731     1.5546     0.5949 H            1    LIG   0.0000
  23 H            0.3571     3.2002     2.3907 H            1    LIG   0.0000
  24 H            1.7319     4.5898     3.7777 H            1    LIG   0.0000
  25 H            2.9804     4.2711     5.9050 H            1    LIG   0.0000
  26 H            4.3762     5.6854     7.3197 H            1    LIG   0.0000
  27 H            6.4420     6.4822     6.4922 H            1    LIG   0.0000
  28 H            8.0769     5.4572     2.0987 H            1    LIG   0.0000
  29 H            4.9974     2.1580     2.9636 H            1    LIG   0.0000
  30 H            3.6155     0.7741     1.5785 H            1    LIG   0.0000
@<TRIPOS>BOND
   1        1        2 1
   2        2        3 1
   3        3        4 ar
   4        4        5 ar
   5        5        6 ar
   6        6        7 1
   7        7        8 2
   8        8        9 1
   9        9       10 2
  10       10       11 1
  11       11       12 1
  12       12       13 2
  13       13       14 1
  14       14       15 2
  15       15        7 1
  16       15       11 1
  17        6       16 ar
  18       16       17 ar
  19       17        3 ar
  20        1       18 1
  21        1       19 1
  22        1       20 1
  23        2       21 1
  24        2       22 1
  25        4       23 1
  26        5       24 1
  27        8       25 1
  28        9       26 1
  29       10       27 1
  30       13       28 1
  31       16       29 1
  32       17       30 1

@<TRIPOS>MOLECULE

  30   32
SMALL
USER_CHARGES
@<TRIPOS>ATOM
   1 C1           0.3843    -0.1048     1.8430 C.3          1    LIG   0.0000
   2 C2           1.0000     1.0000     1.0000 C.3          1    LIG   0.0000
   3 C3           1.8772     1.8772     1.8772 C.ar         1    LIG   0.0000
   4 C4           1.3259     2.9847     2.5125 C.ar         1    LIG   0.0000
   5 C5           2.1224     3.7925     3.3175 C.ar         1    LIG   0.0000
   6 C6           3.4683     3.4785     3.4750 C.ar         1    LIG   0.0000
   7 C7           4.3027     4.3174     4.3134 C.2          1    LIG   0.0000
   8 C8           4.2717     5.6717     4.1081 C.2          1    LIG   0.0000
   9 C9           5.0899     6.4954     4.9282 C.2          1    LIG   0.0000
  10 C10          5.8754     5.9168     5.8922 C.2          1    LIG   0.0000
  11 N11          5.8923     4.5590     6.0874 N.pl3        1    LIG   0.0000
  12 N12          6.5640     3.8125     6.9442 N.2          1    LIG   0.0000
  13 C13          6.2490     2.5538     6.7486 C.2          1    LIG   0.0000
  14 N14          5.3459     2.5158     5.7274 N.2          1    LIG   0.0000
  15 C15          5.1283     3.7471     5.3213 C.2          1    LIG   0.0000
  16 C16          4.0284     2.3731     2.8423 C.ar         1    LIG   0.0000
  17 C17          3.2248     1.5709     2.0394 C.ar         1    LIG   0.0000
  18 H           -0.1931    -0.6822     1.2656 H            1    LIG   0.0000
  19 H            1.1111    -0.6594     2.2481 H            1    LIG   0.0000
  20 H           -0.1703     0.3003     2.5698 H            1    LIG   0.0000
  21 H            1.5546     0.5949     0.2731 H            1    LIG   0.0000
  22 H            0.2731     1.5546     0.5949 H            1    LIG   0.0000
  23 H            0.3571     3.2002     2.3907 H            1    LIG   0.0000
  24 H            1.7319     4.5898     3.7777 H            1    LIG   0.0000
  25 H            3.6888     6.0702     3.4000 H            1    LIG   0.0000
  26 H            5.0928     7.4876     4.8034 H            1    LIG   0.0000
  27 H            6.4501     6.4992     6.4671 H            1    LIG   0.0000
  28 H            6.6050     1.7681     7.2545 H            1    LIG   0.0000
  29 H            4.9974     2.1580     2.9636 H            1    LIG   0.0000
  30 H            3.6155     0.7741     1.5785 H            1    LIG   0.0000
@<TRIPOS>BOND
   1        1        2 1
   2        2        3 1
   3        3        4 ar
   4        4        5 ar
   5        5        6 ar
   6        6        7 1
   7        7        8 2
   8        8        9 1
   9        9       10 2
  10       10       11 1
  11       11       12 1
  12       12       13 2
  13       13       14 1
  14       14       15 2
  15       15        7 1
  16       15       11 1
  17        6       16 ar
  18       16       17 ar
  19       17        3 ar
  20        1       18 1
  21        1       19 1
  22        1       20 1
  23        2       21 1
  24        2       22 1
  25        4       23 1
  26        5       24 1
  27        8       25 1
  28        9       26 1
  29       10       27 1
  30       13       28 1
  31       16       29 1
  32       17       30 1

@<TRIPOS>MOLECULE

  30   32
SMALL
USER_CHARGES
@<TRIPOS>ATOM
   1 C1           0.3843    -0.1048     1.8430 C.3          1    LIG   0.0000
   2 C2           1.0000     1.0000     1.0000 C.3          1    LIG   0.0000
   3 C3           1.8772     1.8772     1.8772 C.ar         1    LIG   0.0000
   4 C4           1.3167     2.5470     2.9594 C.ar         1    LIG   0.0000
   5 C5           2.1132     3.3517     3.7675 C.ar         1    LIG   0.0000
   6 C6           3.4681     3.4759     3.4778 C.ar         1    LIG   0.0000
   7 C7           4.3027     4.3134     4.3174 C.2          1    LIG   0.0000
   8 C8           4.6916     5.5338     3.8308 C.2          1    LIG   0.0000
   9 C9           5.5108     6.3555     4.6519 C.2          1    LIG   0.0000
  10 C10          5.8812     5.9087     5.8945 C.2          1    LIG   0.0000
  11 N11          5.4804     4.6852     6.3685 N.pl3        1    LIG   0.0000
  12 N12          5.7207     4.0760     7.5146 N.2          1    LIG   0.0000
  13 C13          5.1195     2.9096     7.5096 C.2          1    LIG   0.0000
  14 N14          4.4808     2.7877     6.3109 N.2          1    LIG   0.0000
  15 C15          4.7037     3.8778     5.6105 C.2          1    LIG   0.0000
  16 C16          4.0369     2.8104     2.3965 C.ar         1    LIG   0.0000
  17 C17          3.2333     2.0079     1.5940 C.ar         1    LIG   0.0000
  18 H           -0.1931    -0.6822     1.2656 H            1    LIG   0.0000
  19 H            1.1111    -0.6594     2.2481 H            1    LIG   0.0000
  20 H           -0.1703     0.3003     2.5698 H            1    LIG   0.0000
  21 H            1.5546     0.5949     0.2731 H            1    LIG   0.0000
  22 H            0.2731     1.5546     0.5949 H            1    LIG   0.0000
  23 H            0.3412     2.4501     3.1568 H            1    LIG   0.0000
  24 H            1.7164     3.8353     4.5476 H            1    LIG   0.0000
  25 H            4.4066     5.8385     2.9220 H            1    LIG   0.0000
  26 H            5.8142     7.2511     4.3265 H            1    LIG   0.0000
  27 H            6.4579     6.4891     6.4695 H            1    LIG   0.0000
  28 H            5.1282     2.2351     8.2478 H            1    LIG   0.0000
  29 H            5.0123     2.9079     2.1988 H            1    LIG   0.0000
  30 H            3.6299     1.5249     0.8133 H            1    LIG   0.0000
@<TRIPOS>BOND
   1        1        2 1
   2        2        3 1
   3        3        4 ar
   4        4        5 ar
   5        5        6 ar
   6        6        7 1
   7        7        8 2
   8        8        9 1
   9        9       10 2
  10       10       11 1
  11       11       12 1
  12       12       13 2
  13       13       14 1
  14       14       15 2
  15       15        7 1
  16       15       11 1
  17        6       16 ar
  18       16       17 ar
  19       17        3 ar
  20        1       18 1
  21        1       19 1
  22        1       20 1
  23        2       21 1
  24        2       22 1
  25        4       23 1
  26        5       24 1
  27        8       25 1
  28        9       26 1
  29       10       27 1
  30       13       28 1
  31       16       29 1
  32       17       30 1

@<TRIPOS>MOLECULE

  30   32
SMALL
USER_CHARGES
@<TRIPOS>ATOM
   1 C1           0.3843    -0.1048     1.8430 C.3          1    LIG   0.0000
   2 C2           1.0000     1.0000     1.0000 C.3          1    LIG   0.0000
   3 C3           1.8772     1.8772     1.8772 C.ar         1    LIG   0.0000
   4 C4           1.3167     2.5470     2.9594 C.ar         1    LIG   0.0000
   5 C5           2.1132     3.3517     3.7675 C.ar         1    LIG   0.0000
   6 C6           3.4681     3.4759     3.4778 C.ar         1    LIG   0.0000
   7 C7           4.3027     4.3134     4.3174 C.2          1    LIG   0.0000
   8 C8           4.7446     3.7995     5.5081 C.2          1    LIG   0.0000
   9 C9           5.5617     4.6195     6.3330 C.2          1    LIG   0.0000
  10 C10          5.8826     5.8860     5.9158 C.2          1    LIG   0.0000
  11 N11          5.4347     6.3846     4.7187 N.pl3        1    LIG   0.0000
  12 N12          5.6239     7.5556     4.1397 N.2          1    LIG   0.0000
  13 C13          4.9894     7.5688     2.9912 C.2          1    LIG   0.0000
  14 N14          4.3793     6.3573     2.8510 N.2          1    LIG   0.0000
  15 C15          4.6524     5.6312     3.9125 C.2          1    LIG   0.0000
  16 C16          4.0369     2.8104     2.3965 C.ar         1    LIG   0.0000
  17 C17          3.2333     2.0079     1.5940 C.ar         1    LIG   0.0000
  18 H           -0.1931    -0.6822     1.2656 H            1    LIG   0.0000
  19 H            1.1111    -0.6594     2.2481 H            1    LIG   0.0000
  20 H           -0.1703     0.3003     2.5698 H            1    LIG   0.0000
  21 H            1.5546     0.5949     0.2731 H            1    LIG   0.0000
  22 H            0.2731     1.5546     0.5949 H            1    LIG   0.0000
  23 H            0.3412     2.4501     3.1568 H            1    LIG   0.0000
  24 H            1.7164     3.8353     4.5476 H            1    LIG   0.0000
  25 H            4.4988     2.8719     5.7895 H            1    LIG   0.0000
  26 H            5.8994     4.2762     7.2094 H            1    LIG   0.0000
  27 H            6.4574     6.4604     6.4987 H            1    LIG   0.0000
  28 H            4.9589     8.3268     2.3396 H            1    LIG   0.0000
  29 H            5.0123     2.9079     2.1988 H            1    LIG   0.0000
  30 H            3.6299     1.5249     0.8133 H            1    LIG   0.0000
@<TRIPOS>BOND
   1        1        2 1
   2        2        3 1
   3        3        4 ar
   4        4        5 ar
   5        5        6 ar
   6        6        7 1
   7        7        8 2
   8        8        9 1
   9        9       10 2
  10       10       11 1
  11       11       12 1
  12       12       13 2
  13       13       14 1
  14       14       15 2
  15       15        7 1
  16       15       11 1
  17        6       16 ar
  18       16       17 ar
  19       17        3 ar
  20        1       18 1
  21        1       19 1
  22        1       20 1
  23        2       21 1
  24        2       22 1
  25        4       23 1
  26        5       24 1
  27        8       25 1
  28        9       26 1
  29       10       27 1
  30       13       28 1
  31       16       29 1
  32       17       30 1

@<TRIPOS>MOLECULE

  30   32
SMALL
USER_CHARGES
@<TRIPOS>ATOM
   1 C1           0.3843    -0.1048     1.8430 C.3          1    LIG   0.0000
   2 C2           1.0000     1.0000     1.0000 C.3          1    LIG   0.0000
   3 C3           1.8772     1.8772     1.8772 C.ar         1    LIG   0.0000
   4 C4           1.5893     3.2320     2.0018 C.ar         1    LIG   0.0000
   5 C5           2.3875     4.0417     2.8032 C.ar         1    LIG   0.0000
   6 C6           3.4701     3.4798     3.4720 C.ar         1    LIG   0.0000
   7 C7           4.3049     4.3196     4.3089 C.2          1    LIG   0.0000
   8 C8           3.7888     5.5094     4.7508 C.2          1    LIG   0.0000
   9 C9           4.6062     6.3346     5.5702 C.2          1    LIG   0.0000
  10 C10          5.8726     5.9186     5.8932 C.2          1    LIG   0.0000
  11 N11          6.3734     4.7224     5.4454 N.pl3        1    LIG   0.0000
  12 N12          7.5447     4.1447     5.6364 N.2          1    LIG   0.0000
  13 C13          7.5605     2.9966     5.0009 C.2          1    LIG   0.0000
  14 N14          6.3503     2.8556     4.3884 N.2          1    LIG   0.0000
  15 C15          5.6225     3.9160     4.6608 C.2          1    LIG   0.0000
  16 C16          3.7660     2.1256     3.3522 C.ar         1    LIG   0.0000
  17 C17          2.9628     1.3235     2.5488 C.ar         1    LIG   0.0000
  18 H           -0.1931    -0.6822     1.2656 H            1    LIG   0.0000
  19 H            1.1111    -0.6594     2.2481 H            1    LIG   0.0000
  20 H           -0.1703     0.3003     2.5698 H            1    LIG   0.0000
  21 H            1.5546     0.5949     0.2731 H            1    LIG   0.0000
  22 H            0.2731     1.5546     0.5949 H            1    LIG   0.0000
  23 H            0.8086     3.6242     1.5153 H            1    LIG   0.0000
  24 H            2.1853     5.0165     2.8976 H            1    LIG   0.0000
  25 H            2.8614     5.7900     4.5034 H            1    LIG   0.0000
  26 H            4.2612     7.2103     5.9080 H            1    LIG   0.0000
  27 H            6.4451     6.5016     6.4696 H            1    LIG   0.0000
  28 H            8.3193     2.3459     4.9714 H            1    LIG   0.0000
  29 H            4.5472     1.7336     3.8381 H            1    LIG   0.0000
  30 H            3.1654     0.3489     2.4538 H            1    LIG   0.0000
@<TRIPOS>BOND
   1        1        2 1
   2        2        3 1
   3        3        4 ar
   4        4        5 ar
   5        5        6 ar
   6        6        7 1
   7        7        8 2
   8        8        9 1
   9        9       10 2
  10       10       11 1
  11       11       12 1
  12       12       13 2
  13       13       14 1
  14       14       15 2
  15       15        7 1
  16       15       11 1
  17        6       16 ar
  18       16       17 ar
  19       17        3 ar
  20        1       18 1
  21        1       19 1
  22        1       20 1
  23        2       21 1
  24        2       22 1
  25        4       23 1
  26        5       24 1
  27        8       25 1
  28        9       26 1
  29       10       27 1
  30       13       28 1
  31       16       29 1
  32       17       30 1

@<TRIPOS>MOLECULE

  30   32
SMALL
USER_CHARGES
@<TRIPOS>ATOM
   1 C1           0.3843    -0.1048     1.8430 C.3          1    LIG   0.0000
   2 C2           1.0000     1.0000     1.0000 C.3          1    LIG   0.0000
   3 C3           1.8772     1.8772     1.8772 C.ar         1    LIG   0.0000
   4 C4           1.4559     2.2061     3.1611 C.ar         1    LIG   0.0000
   5 C5           2.2535     3.0085     3.9704 C.ar         1    LIG   0.0000
   6 C6           3.4688     3.4739     3.4791 C.ar         1    LIG   0.0000
   7 C7           4.3040     4.3104     4.3191 C.2          1    LIG   0.0000
   8 C8           3.7186     4.9526     5.3785 C.2          1    LIG   0.0000
   9 C9           4.5355     5.7740     6.2021 C.2          1    LIG   0.0000
  10 C10          5.8715     5.8958     5.9171 C.2          1    LIG   0.0000
  11 N11          6.4431     5.2431     4.8544 N.pl3        1    LIG   0.0000
  12 N12          7.6869     5.2247     4.4129 N.2          1    LIG   0.0000
  13 C13          7.7507     4.4503     3.3554 C.2          1    LIG   0.0000
  14 N14          6.4950     3.9690     3.1290 N.2          1    LIG   0.0000
  15 C15          5.6926     4.4570     4.0491 C.2          1    LIG   0.0000
  16 C16          3.8976     3.1506     2.1956 C.ar         1    LIG   0.0000
  17 C17          3.0939     2.3480     1.3933 C.ar         1    LIG   0.0000
  18 H           -0.1931    -0.6822     1.2656 H            1    LIG   0.0000
  19 H            1.1111    -0.6594     2.2481 H            1    LIG   0.0000
  20 H           -0.1703     0.3003     2.5698 H            1    LIG   0.0000
  21 H            1.5546     0.5949     0.2731 H            1    LIG   0.0000
  22 H            0.2731     1.5546     0.5949 H            1    LIG   0.0000
  23 H            0.5797     1.8659     3.5024 H            1    LIG   0.0000
  24 H            1.9566     3.2480     4.8948 H            1    LIG   0.0000
  25 H            2.7423     4.8462     5.5672 H            1    LIG   0.0000
  26 H            4.1397     6.2587     6.9822 H            1    LIG   0.0000
  27 H            6.4432     6.4747     6.4984 H            1    LIG   0.0000
  28 H            8.5684     4.2503     2.8156 H            1    LIG   0.0000
  29 H            4.7734     3.4915     1.8540 H            1    LIG   0.0000
  30 H            3.3904     2.1091     0.4686 H            1    LIG   0.0000
@<TRIPOS>BOND
   1        1        2 1
   2        2        3 1
   3        3        4 ar
   4        4        5 ar
   5        5        6 ar
   6        6        7 1
   7        7        8 2
   8        8        9 1
   9        9       10 2
  10       10       11 1
  11       11       12 1
  12       12       13 2
  13       13       14 1
  14       14       15 2
  15       15        7 1
  16       15       11 1
  17        6       16 ar
  18       16       17 ar
  19       17        3 ar
  20        1       18 1
  21        1       19 1
  22        1       20 1
  23        2       21 1
  24        2       22 1
  25        4       23 1
  26        5       24 1
  27        8       25 1
  28        9       26 1
  29       10       27 1
  30       13       28 1
  31       16       29 1
  32       17       30 1

@<TRIPOS>MOLECULE

  30   32
SMALL
USER_CHARGES
@<TRIPOS>ATOM
   1 C1           0.3843    -0.1048     1.8430 C.3          1    LIG   0.0000
   2 C2           1.0000     1.0000     1.0000 C.3          1    LIG   0.0000
   3 C3           1.8772     1.8772     1.8772 C.ar         1    LIG   0.0000
   4 C4           1.8735     3.2557     1.6938 C.ar         1    LIG   0.0000
   5 C5           2.6736     4.0656     2.4931 C.ar         1    LIG   0.0000
   6 C6           3.4719     3.4798     3.4702 C.ar         1    LIG   0.0000
   7 C7           4.3074     4.3199     4.3061 C.2          1    LIG   0.0000
   8 C8           5.4805     3.7960     4.7824 C.2          1    LIG   0.0000
   9 C9           6.3001     4.6176     5.6031 C.2          1    LIG   0.0000
  10 C10          5.8985     5.8976     5.8884 C.2          1    LIG   0.0000
  11 N11          4.7224     6.4084     5.4007 N.pl3        1    LIG   0.0000
  12 N12          4.1605     7.5932     5.5523 N.2          1    LIG   0.0000
  13 C13          3.0272     7.6134     4.8911 C.2          1    LIG   0.0000
  14 N14          2.8774     6.3908     4.3059 N.2          1    LIG   0.0000
  15 C15          3.9180     5.6512     4.6201 C.2          1    LIG   0.0000
  16 C16          3.4825     2.1015     3.6598 C.ar         1    LIG   0.0000
  17 C17          2.6796     1.2993     2.8562 C.ar         1    LIG   0.0000
  18 H           -0.1931    -0.6822     1.2656 H            1    LIG   0.0000
  19 H            1.1111    -0.6594     2.2481 H            1    LIG   0.0000
  20 H           -0.1703     0.3003     2.5698 H            1    LIG   0.0000
  21 H            1.5546     0.5949     0.2731 H            1    LIG   0.0000
  22 H            0.2731     1.5546     0.5949 H            1    LIG   0.0000
  23 H            1.2958     3.6647     0.9875 H            1    LIG   0.0000
  24 H            2.6749     5.0576     2.3668 H            1    LIG   0.0000
  25 H            5.7528     2.8602     4.5585 H            1    LIG   0.0000
  26 H            7.1616     4.2656     5.9690 H            1    LIG   0.0000
  27 H            6.4774     6.4728     6.4664 H            1    LIG   0.0000
  28 H            2.3913     8.3826     4.8281 H            1    LIG   0.0000
  29 H            4.0608     1.6925     4.3656 H            1    LIG   0.0000
  30 H            2.6789     0.3073     2.9820 H            1    LIG   0.0000
@<TRIPOS>BOND
   1        1        2 1
   2        2        3 1
   3        3        4 ar
   4        4        5 ar
   5        5        6 ar
   6        6        7 1
   7        7        8 2
   8        8        9 1
   9        9       10 2
  10       10       11 1
  11       11       12 1
  12       12       13 2
  13       13       14 1
  14       14       15 2
  15       15        7 1
  16       15       11 1
  17        6       16 ar
  18       16       17 ar
  19       17        3 ar
  20        1       18 1
  21        1       19 1
  22        1       20 1
  23        2       21 1
  24        2       22 1
  25        4       23 1
  26        5       24 1
  27        8       25 1
  28        9       26 1
  29       10       27 1
  30       13       28 1
  31       16       29 1
  32       17       30 1

@<TRIPOS>MOLECULE

  30   32
SMALL
USER_CHARGES
@<TRIPOS>ATOM
   1 C1           0.3843    -0.1048     1.8430 C.3          1    LIG   0.0000
   2 C2           1.0000     1.0000     1.0000 C.3          1    LIG   0.0000
   3 C3           1.8772     1.8772     1.8772 C.ar         1    LIG   0.0000
   4 C4           1.8735     3.2557     1.6938 C.ar         1    LIG   0.0000
   5 C5           2.6736     4.0656     2.4931 C.ar         1    LIG   0.0000
   6 C6           3.4719     3.4798     3.4702 C.ar         1    LIG   0.0000
   7 C7           4.3074     4.3199     4.3061 C.2          1    LIG   0.0000
   8 C8           3.9721     4.4551     5.6277 C.2          1    LIG   0.0000
   9 C9           4.7893     5.2792     6.4483 C.2          1    LIG   0.0000
  10 C10          5.8791     5.9056     5.8997 C.2          1    LIG   0.0000
  11 N11          6.2033     5.7571     4.5750 N.pl3        1    LIG   0.0000
  12 N12          7.1914     6.2624     3.8602 N.2          1    LIG   0.0000
  13 C13          7.0853     5.8318     2.6252 C.2          1    LIG   0.0000
  14 N14          5.9855     5.0275     2.5692 N.2          1    LIG   0.0000
  15 C15          5.4440     4.9829     3.7664 C.2          1    LIG   0.0000
  16 C16          3.4825     2.1015     3.6598 C.ar         1    LIG   0.0000
  17 C17          2.6796     1.2993     2.8562 C.ar         1    LIG   0.0000
  18 H           -0.1931    -0.6822     1.2656 H            1    LIG   0.0000
  19 H            1.1111    -0.6594     2.2481 H            1    LIG   0.0000
  20 H           -0.1703     0.3003     2.5698 H            1    LIG   0.0000
  21 H            1.5546     0.5949     0.2731 H            1    LIG   0.0000
  22 H            0.2731     1.5546     0.5949 H            1    LIG   0.0000
  23 H            1.2958     3.6647     0.9875 H            1    LIG   0.0000
  24 H            2.6749     5.0576     2.3668 H            1    LIG   0.0000
  25 H            3.1735     3.9862     6.0050 H            1    LIG   0.0000
  26 H            4.5716     5.4013     7.4167 H            1    LIG   0.0000
  27 H            6.4517     6.4849     6.4798 H            1    LIG   0.0000
  28 H            7.6974     6.0526     1.8659 H            1    LIG   0.0000
  29 H            4.0608     1.6925     4.3656 H            1    LIG   0.0000
  30 H            2.6789     0.3073     2.9820 H            1    LIG   0.0000
@<TRIPOS>BOND
   1        1        2 1
   2        2        3 1
   3        3        4 ar
   4        4        5 ar
   5        5        6 ar
   6        6        7 1
   7        7        8 2
   8        8        9 1
   9        9       10 2
  10       10       11 1
  11       11       12 1
  12       12       13 2
  13       13       14 1
  14       14       15 2
  15       15        7 1
  16       15       11 1
  17        6       16 ar
  18       16       17 ar
  19       17        3 ar
  20        1       18 1
  21        1       19 1
  22        1       20 1
  23        2       21 1
  24        2       22 1
  25        4       23 1
  26        5       24 1
  27        8       25 1
  28        9       26 1
  29       10       27 1
  30       13       28 1
  31       16       29 1
  32       17       30 1

@<TRIPOS>MOLECULE

  30   32
SMALL
USER_CHARGES
@<TRIPOS>ATOM
   1 C1           0.3843    -0.1048     1.8430 C.3          1    LIG   0.0000
   2 C2           1.0000     1.0000     1.0000 C.3          1    LIG   0.0000
   3 C3           1.8772     1.8772     1.8772 C.ar         1    LIG   0.0000
   4 C4           1.8735     3.2557     1.6938 C.ar         1    LIG   0.0000
   5 C5           2.6736     4.0656     2.4931 C.ar         1    LIG   0.0000
   6 C6           3.4719     3.4798     3.4702 C.ar         1    LIG   0.0000
   7 C7           4.3074     4.3199     4.3061 C.2          1    LIG   0.0000
   8 C8           5.3884     4.9344     3.7305 C.2          1    LIG   0.0000
   9 C9           6.2093     5.7571     4.5487 C.2          1    LIG   0.0000
  10 C10          5.8969     5.9124     5.8751 C.2          1    LIG   0.0000
  11 N11          4.8087     5.2928     6.4355 N.pl3        1    LIG   0.0000
  12 N12          4.3393     5.3090     7.6692 N.2          1    LIG   0.0000
  13 C13          3.2669     4.5547     7.7252 C.2          1    LIG   0.0000
  14 N14          3.0621     4.0475     6.4760 N.2          1    LIG   0.0000
  15 C15          4.0097     4.5003     5.6851 C.2          1    LIG   0.0000
  16 C16          3.4825     2.1015     3.6598 C.ar         1    LIG   0.0000
  17 C17          2.6796     1.2993     2.8562 C.ar         1    LIG   0.0000
  18 H           -0.1931    -0.6822     1.2656 H            1    LIG   0.0000
  19 H            1.1111    -0.6594     2.2481 H            1    LIG   0.0000
  20 H           -0.1703     0.3003     2.5698 H            1    LIG   0.0000
  21 H            1.5546     0.5949     0.2731 H            1    LIG   0.0000
  22 H            0.2731     1.5546     0.5949 H            1    LIG   0.0000
  23 H            1.2958     3.6647     0.9875 H            1    LIG   0.0000
  24 H            2.6749     5.0576     2.3668 H            1    LIG   0.0000
  25 H            5.5943     4.8073     2.7602 H            1    LIG   0.0000
  26 H            7.0072     6.2185     4.1609 H            1    LIG   0.0000
  27 H            6.4767     6.4917     6.4480 H            1    LIG   0.0000
  28 H            2.7042     4.3836     8.5340 H            1    LIG   0.0000
  29 H            4.0608     1.6925     4.3656 H            1    LIG   0.0000
  30 H            2.6789     0.3073     2.9820 H            1    LIG   0.0000
@<TRIPOS>BOND
   1        1        2 1
   2        2        3 1
   3        3        4 ar
   4        4        5 ar
   5        5        6 ar
   6        6        7 1
   7        7        8 2
   8        8        9 1
   9        9       10 2
  10       10       11 1
  11       11       12 1
  12       12       13 2
  13       13       14 1
  14       14       15 2
  15       15        7 1
  16       15       11 1
  17        6       16 ar
  18       16       17 ar
  19       17        3 ar
  20        1       18 1
  21        1       19 1
  22        1       20 1
  23        2       21 1
  24        2       22 1
  25        4       23 1
  26        5       24 1
  27        8       25 1
  28        9       26 1
  29       10       27 1
  30       13       28 1
  31       16       29 1
  32       17       30 1

@<TRIPOS>MOLECULE

  30   32
SMALL
USER_CHARGES
@<TRIPOS>ATOM
   1 C1           0.3843    -0.1048     1.8430 C.3          1    LIG   0.0000
   2 C2           1.0000     1.0000     1.0000 C.3          1    LIG   0.0000
   3 C3           1.8772     1.8772     1.8772 C.ar         1    LIG   0.0000
   4 C4           1.8735     3.2557     1.6938 C.ar         1    LIG   0.0000
   5 C5           2.6736     4.0656     2.4931 C.ar         1    LIG   0.0000
   6 C6           3.4719     3.4798     3.4702 C.ar         1    LIG   0.0000
   7 C7           4.3074     4.3199     4.3061 C.2          1    LIG   0.0000
   8 C8           4.6086     5.5802     3.8608 C.2          1    LIG   0.0000
   9 C9           5.4286     6.4046     4.6784 C.2          1    LIG   0.0000
  10 C10          5.8867     5.9205     5.8771 C.2          1    LIG   0.0000
  11 N11          5.5731     4.6572     6.3102 N.pl3        1    LIG   0.0000
  12 N12          5.9044     4.0088     7.4113 N.2          1    LIG   0.0000
  13 C13          5.3626     2.8141     7.3798 C.2          1    LIG   0.0000
  14 N14          4.6676     2.7148     6.2107 N.2          1    LIG   0.0000
  15 C15          4.7982     3.8463     5.5541 C.2          1    LIG   0.0000
  16 C16          3.4825     2.1015     3.6598 C.ar         1    LIG   0.0000
  17 C17          2.6796     1.2993     2.8562 C.ar         1    LIG   0.0000
  18 H           -0.1931    -0.6822     1.2656 H            1    LIG   0.0000
  19 H            1.1111    -0.6594     2.2481 H            1    LIG   0.0000
  20 H           -0.1703     0.3003     2.5698 H            1    LIG   0.0000
  21 H            1.5546     0.5949     0.2731 H            1    LIG   0.0000
  22 H            0.2731     1.5546     0.5949 H            1    LIG   0.0000
  23 H            1.2958     3.6647     0.9875 H            1    LIG   0.0000
  24 H            2.6749     5.0576     2.3668 H            1    LIG   0.0000
  25 H            4.2606     5.9114     2.9838 H            1    LIG   0.0000
  26 H            5.6693     7.3289     4.3823 H            1    LIG   0.0000
  27 H            6.4637     6.5030     6.4496 H            1    LIG   0.0000
  28 H            5.4442     2.1074     8.0826 H            1    LIG   0.0000
  29 H            4.0608     1.6925     4.3656 H            1    LIG   0.0000
  30 H            2.6789     0.3073     2.9820 H            1    LIG   0.0000
@<TRIPOS>BOND
   1        1        2 1
   2        2        3 1
   3        3        4 ar
   4        4        5 ar
   5        5        6 ar
   6        6        7 1
   7        7        8 2
   8        8        9 1
   9        9       10 2
  10       10       11 1
  11       11       12 1
  12       12       13 2
  13       13       14 1
  14       14       15 2
  15       15        7 1
  16       15       11 1
  17        6       16 ar
  18       16       17 ar
  19       17        3 ar
  20        1       18 1
  21        1       19 1
  22        1       20 1
  23        2       21 1
  24        2       22 1
  25        4       23 1
  26        5       24 1
  27        8       25 1
  28        9       26 1
  29       10       27 1
  30       13       28 1
  31       16       29 1
  32       17       30 1

