@<TRIPOS>MOLECULE
*****
 30 32 0 0 0
SMALL
USER_CHARGES

@<TRIPOS>ATOM
      1 C1          0.3843   -0.1048    1.8430 C.3     1  LIG1        0.0000
      2 C2          1.0000    1.0000    1.0000 C.3     1  LIG1        0.0000
      3 C3          1.8772    1.8772    1.8772 C.ar    1  LIG1        0.0000
      4 C4          1.4559    2.2061    3.1611 C.ar    1  LIG1        0.0000
      5 C5          2.2535    3.0085    3.9704 C.ar    1  LIG1        0.0000
      6 C6          3.4688    3.4739    3.4791 C.ar    1  LIG1        0.0000
      7 C7          4.3040    4.3104    4.3191 C.2     1  LIG1        0.0000
      8 C8          3.7186    4.9526    5.3785 C.2     1  LIG1        0.0000
      9 C9          4.5355    5.7740    6.2021 C.2     1  LIG1        0.0000
     10 C10         5.8715    5.8958    5.9171 C.2     1  LIG1        0.0000
     11 N11         6.4431    5.2431    4.8544 N.pl3   1  LIG1        0.0000
     12 N12         7.6869    5.2247    4.4129 N.2     1  LIG1        0.0000
     13 C13         7.7507    4.4503    3.3554 C.2     1  LIG1        0.0000
     14 N14         6.4950    3.9690    3.1290 N.2     1  LIG1        0.0000
     15 C15         5.6926    4.4570    4.0491 C.2     1  LIG1        0.0000
     16 C16         3.8976    3.1506    2.1956 C.ar    1  LIG1        0.0000
     17 C17         3.0939    2.3480    1.3933 C.ar    1  LIG1        0.0000
     18 H          -0.1931   -0.6822    1.2656 H       1  LIG1        0.0000
     19 H           1.1111   -0.6594    2.2481 H       1  LIG1        0.0000
     20 H          -0.1703    0.3003    2.5698 H       1  LIG1        0.0000
     21 H           1.5546    0.5949    0.2731 H       1  LIG1        0.0000
     22 H           0.2731    1.5546    0.5949 H       1  LIG1        0.0000
     23 H           0.5797    1.8659    3.5024 H       1  LIG1        0.0000
     24 H           1.9566    3.2480    4.8948 H       1  LIG1        0.0000
     25 H           2.7423    4.8462    5.5672 H       1  LIG1        0.0000
     26 H           4.1397    6.2587    6.9822 H       1  LIG1        0.0000
     27 H           6.4432    6.4747    6.4984 H       1  LIG1        0.0000
     28 H           8.5684    4.2503    2.8156 H       1  LIG1        0.0000
     29 H           4.7734    3.4915    1.8540 H       1  LIG1        0.0000
     30 H           3.3904    2.1091    0.4686 H       1  LIG1        0.0000
@<TRIPOS>BOND
     1     1     2    1
     2     2     3    1
     3     3     4   ar
     4     4     5   ar
     5     5     6   ar
     6     6     7    1
     7     7     8    2
     8     8     9    1
     9     9    10    2
    10    10    11    1
    11    11    12    1
    12    12    13    2
    13    13    14    1
    14    14    15    2
    15    15     7    1
    16    15    11    1
    17     6    16   ar
    18    16    17   ar
    19    17     3   ar
    20     1    18    1
    21     1    19    1
    22     1    20    1
    23     2    21    1
    24     2    22    1
    25     4    23    1
    26     5    24    1
    27     8    25    1
    28     9    26    1
    29    10    27    1
    30    13    28    1
    31    16    29    1
    32    17    30    1
