@<TRIPOS>MOLECULE
*****
 30 32 0 0 0
SMALL
USER_CHARGES

@<TRIPOS>ATOM
      1 C1          0.3843   -0.1048    1.8430 C.3     1  LIG1        0.0000
      2 C2          1.0000    1.0000    1.0000 C.3     1  LIG1        0.0000
      3 C3          1.8772    1.8772    1.8772 C.ar    1  LIG1        0.0000
      4 C4          1.3259    2.9847    2.5125 C.ar    1  LIG1        0.0000
      5 C5          2.1224    3.7925    3.3175 C.ar    1  LIG1        0.0000
      6 C6          3.4683    3.4785    3.4750 C.ar    1  LIG1        0.0000
      7 C7          4.3027    4.3174    4.3134 C.2     1  LIG1        0.0000
      8 C8          5.0781    3.7116    5.2669 C.2     1  LIG1        0.0000
      9 C9          5.8956    4.5325    6.0905 C.2     1  LIG1        0.0000
     10 C10         5.8864    5.8915    5.9065 C.2     1  LIG1        0.0000
     11 N11         5.1066    6.4824    4.9448 N.pl3   1  LIG1        0.0000
     12 N12         4.9528    7.7495    4.6084 N.2     1  LIG1        0.0000
     13 C13         4.0912    7.8252    3.6215 C.2     1  LIG1        0.0000
     14 N14         3.6916    6.5535    3.3338 N.2     1  LIG1        0.0000
     15 C15         4.3146    5.7298    4.1473 C.2     1  LIG1        0.0000
     16 C16         4.0284    2.3731    2.8423 C.ar    1  LIG1        0.0000
     17 C17         3.2248    1.5709    2.0394 C.ar    1  LIG1        0.0000
     18 H          -0.1931   -0.6822    1.2656 H       1  LIG1        0.0000
     19 H           1.1111   -0.6594    2.2481 H       1  LIG1        0.0000
     20 H          -0.1703    0.3003    2.5698 H       1  LIG1        0.0000
     21 H           1.5546    0.5949    0.2731 H       1  LIG1        0.0000
     22 H           0.2731    1.5546    0.5949 H       1  LIG1        0.0000
     23 H           0.3571    3.2002    2.3907 H       1  LIG1        0.0000
     24 H           1.7319    4.5898    3.7777 H       1  LIG1        0.0000
     25 H           5.0692    2.7181    5.3803 H       1  LIG1        0.0000
     26 H           6.4721    4.1228    6.7975 H       1  LIG1        0.0000
     27 H           6.4625    6.4661    6.4879 H       1  LIG1        0.0000
     28 H           3.7844    8.6604    3.1652 H       1  LIG1        0.0000
     29 H           4.9974    2.1580    2.9636 H       1  LIG1        0.0000
     30 H           3.6155    0.7741    1.5785 H       1  LIG1        0.0000
@<TRIPOS>BOND
     1     1     2    1
     2     2     3    1
     3     3     4   ar
     4     4     5   ar
     5     5     6   ar
     6     6     7    1
     7     7     8    2
     8     8     9    1
     9     9    10    2
    10    10    11    1
    11    11    12    1
    12    12    13    2
    13    13    14    1
    14    14    15    2
    15    15     7    1
    16    15    11    1
    17     6    16   ar
    18    16    17   ar
    19    17     3   ar
    20     1    18    1
    21     1    19    1
    22     1    20    1
    23     2    21    1
    24     2    22    1
    25     4    23    1
    26     5    24    1
    27     8    25    1
    28     9    26    1
    29    10    27    1
    30    13    28    1
    31    16    29    1
    32    17    30    1
