@<TRIPOS>MOLECULE
*****
 30 32 0 0 0
SMALL
USER_CHARGES

@<TRIPOS>ATOM
      1 C1          0.3843   -0.1048    1.8430 C.3     1  LIG1        0.0000
      2 C2          1.0000    1.0000    1.0000 C.3     1  LIG1        0.0000
      3 C3          1.8772    1.8772    1.8772 C.ar    1  LIG1        0.0000
      4 C4          1.5893    3.2320    2.0018 C.ar    1  LIG1        0.0000
      5 C5          2.3875    4.0417    2.8032 C.ar    1  LIG1        0.0000
      6 C6          3.4701    3.4798    3.4720 C.ar    1  LIG1        0.0000
      7 C7          4.3049    4.3196    4.3089 C.2     1  LIG1        0.0000
      8 C8          3.7888    5.5094    4.7508 C.2     1  LIG1        0.0000
      9 C9          4.6062    6.3346    5.5702 C.2     1  LIG1        0.0000
     10 C10         5.8726    5.9186    5.8932 C.2     1  LIG1        0.0000
     11 N11         6.3734    4.7224    5.4454 N.pl3   1  LIG1        0.0000
     12 N12         7.5447    4.1447    5.6364 N.2     1  LIG1        0.0000
     13 C13         7.5605    2.9966    5.0009 C.2     1  LIG1        0.0000
     14 N14         6.3503    2.8556    4.3884 N.2     1  LIG1        0.0000
     15 C15         5.6225    3.9160    4.6608 C.2     1  LIG1        0.0000
     16 C16         3.7660    2.1256    3.3522 C.ar    1  LIG1        0.0000
     17 C17         2.9628    1.3235    2.5488 C.ar    1  LIG1        0.0000
     18 H          -0.1931   -0.6822    1.2656 H       1  LIG1        0.0000
     19 H           1.1111   -0.6594    2.2481 H       1  LIG1        0.0000
     20 H          -0.1703    0.3003    2.5698 H       1  LIG1        0.0000
     21 H           1.5546    0.5949    0.2731 H       1  LIG1        0.0000
     22 H           0.2731    1.5546    0.5949 H       1  LIG1        0.0000
     23 H           0.8086    3.6242    1.5153 H       1  LIG1        0.0000
     24 H           2.1853    5.0165    2.8976 H       1  LIG1        0.0000
     25 H           2.8614    5.7900    4.5034 H       1  LIG1        0.0000
     26 H           4.2612    7.2103    5.9080 H       1  LIG1        0.0000
     27 H           6.4451    6.5016    6.4696 H       1  LIG1        0.0000
     28 H           8.3193    2.3459    4.9714 H       1  LIG1        0.0000
     29 H           4.5472    1.7336    3.8381 H       1  LIG1        0.0000
     30 H           3.1654    0.3489    2.4538 H       1  LIG1        0.0000
@<TRIPOS>BOND
     1     1     2    1
     2     2     3    1
     3     3     4   ar
     4     4     5   ar
     5     5     6   ar
     6     6     7    1
     7     7     8    2
     8     8     9    1
     9     9    10    2
    10    10    11    1
    11    11    12    1
    12    12    13    2
    13    13    14    1
    14    14    15    2
    15    15     7    1
    16    15    11    1
    17     6    16   ar
    18    16    17   ar
    19    17     3   ar
    20     1    18    1
    21     1    19    1
    22     1    20    1
    23     2    21    1
    24     2    22    1
    25     4    23    1
    26     5    24    1
    27     8    25    1
    28     9    26    1
    29    10    27    1
    30    13    28    1
    31    16    29    1
    32    17    30    1
