@<TRIPOS>MOLECULE
*****
 30 32 0 0 0
SMALL
USER_CHARGES

@<TRIPOS>ATOM
      1 C1          0.3843   -0.1048    1.8430 C.3     1  LIG1        0.0000
      2 C2          1.0000    1.0000    1.0000 C.3     1  LIG1        0.0000
      3 C3          1.8772    1.8772    1.8772 C.ar    1  LIG1        0.0000
      4 C4          1.8735    3.2557    1.6938 C.ar    1  LIG1        0.0000
      5 C5          2.6736    4.0656    2.4931 C.ar    1  LIG1        0.0000
      6 C6          3.4719    3.4798    3.4702 C.ar    1  LIG1        0.0000
      7 C7          4.3074    4.3199    4.3061 C.2     1  LIG1        0.0000
      8 C8          3.9721    4.4551    5.6277 C.2     1  LIG1        0.0000
      9 C9          4.7893    5.2792    6.4483 C.2     1  LIG1        0.0000
     10 C10         5.8791    5.9056    5.8997 C.2     1  LIG1        0.0000
     11 N11         6.2033    5.7571    4.5750 N.pl3   1  LIG1        0.0000
     12 N12         7.1914    6.2624    3.8602 N.2     1  LIG1        0.0000
     13 C13         7.0853    5.8318    2.6252 C.2     1  LIG1        0.0000
     14 N14         5.9855    5.0275    2.5692 N.2     1  LIG1        0.0000
     15 C15         5.4440    4.9829    3.7664 C.2     1  LIG1        0.0000
     16 C16         3.4825    2.1015    3.6598 C.ar    1  LIG1        0.0000
     17 C17         2.6796    1.2993    2.8562 C.ar    1  LIG1        0.0000
     18 H          -0.1931   -0.6822    1.2656 H       1  LIG1        0.0000
     19 H           1.1111   -0.6594    2.2481 H       1  LIG1        0.0000
     20 H          -0.1703    0.3003    2.5698 H       1  LIG1        0.0000
     21 H           1.5546    0.5949    0.2731 H       1  LIG1        0.0000
     22 H           0.2731    1.5546    0.5949 H       1  LIG1        0.0000
     23 H           1.2958    3.6647    0.9875 H       1  LIG1        0.0000
     24 H           2.6749    5.0576    2.3668 H       1  LIG1        0.0000
     25 H           3.1735    3.9862    6.0050 H       1  LIG1        0.0000
     26 H           4.5716    5.4013    7.4167 H       1  LIG1        0.0000
     27 H           6.4517    6.4849    6.4798 H       1  LIG1        0.0000
     28 H           7.6974    6.0526    1.8659 H       1  LIG1        0.0000
     29 H           4.0608    1.6925    4.3656 H       1  LIG1        0.0000
     30 H           2.6789    0.3073    2.9820 H       1  LIG1        0.0000
@<TRIPOS>BOND
     1     1     2    1
     2     2     3    1
     3     3     4   ar
     4     4     5   ar
     5     5     6   ar
     6     6     7    1
     7     7     8    2
     8     8     9    1
     9     9    10    2
    10    10    11    1
    11    11    12    1
    12    12    13    2
    13    13    14    1
    14    14    15    2
    15    15     7    1
    16    15    11    1
    17     6    16   ar
    18    16    17   ar
    19    17     3   ar
    20     1    18    1
    21     1    19    1
    22     1    20    1
    23     2    21    1
    24     2    22    1
    25     4    23    1
    26     5    24    1
    27     8    25    1
    28     9    26    1
    29    10    27    1
    30    13    28    1
    31    16    29    1
    32    17    30    1
