@<TRIPOS>MOLECULE
*****
 30 32 0 0 0
SMALL
USER_CHARGES

@<TRIPOS>ATOM
      1 C1          0.3843   -0.1048    1.8430 C.3     1  LIG1        0.0000
      2 C2          1.0000    1.0000    1.0000 C.3     1  LIG1        0.0000
      3 C3          1.8772    1.8772    1.8772 C.ar    1  LIG1        0.0000
      4 C4          1.3167    2.5470    2.9594 C.ar    1  LIG1        0.0000
      5 C5          2.1132    3.3517    3.7675 C.ar    1  LIG1        0.0000
      6 C6          3.4681    3.4759    3.4778 C.ar    1  LIG1        0.0000
      7 C7          4.3027    4.3134    4.3174 C.2     1  LIG1        0.0000
      8 C8          4.6916    5.5338    3.8308 C.2     1  LIG1        0.0000
      9 C9          5.5108    6.3555    4.6519 C.2     1  LIG1        0.0000
     10 C10         5.8812    5.9087    5.8945 C.2     1  LIG1        0.0000
     11 N11         5.4804    4.6852    6.3685 N.pl3   1  LIG1        0.0000
     12 N12         5.7207    4.0760    7.5146 N.2     1  LIG1        0.0000
     13 C13         5.1195    2.9096    7.5096 C.2     1  LIG1        0.0000
     14 N14         4.4808    2.7877    6.3109 N.2     1  LIG1        0.0000
     15 C15         4.7037    3.8778    5.6105 C.2     1  LIG1        0.0000
     16 C16         4.0369    2.8104    2.3965 C.ar    1  LIG1        0.0000
     17 C17         3.2333    2.0079    1.5940 C.ar    1  LIG1        0.0000
     18 H          -0.1931   -0.6822    1.2656 H       1  LIG1        0.0000
     19 H           1.1111   -0.6594    2.2481 H       1  LIG1        0.0000
     20 H          -0.1703    0.3003    2.5698 H       1  LIG1        0.0000
     21 H           1.5546    0.5949    0.2731 H       1  LIG1        0.0000
     22 H           0.2731    1.5546    0.5949 H       1  LIG1        0.0000
     23 H           0.3412    2.4501    3.1568 H       1  LIG1        0.0000
     24 H           1.7164    3.8353    4.5476 H       1  LIG1        0.0000
     25 H           4.4066    5.8385    2.9220 H       1  LIG1        0.0000
     26 H           5.8142    7.2511    4.3265 H       1  LIG1        0.0000
     27 H           6.4579    6.4891    6.4695 H       1  LIG1        0.0000
     28 H           5.1282    2.2351    8.2478 H       1  LIG1        0.0000
     29 H           5.0123    2.9079    2.1988 H       1  LIG1        0.0000
     30 H           3.6299    1.5249    0.8133 H       1  LIG1        0.0000
@<TRIPOS>BOND
     1     1     2    1
     2     2     3    1
     3     3     4   ar
     4     4     5   ar
     5     5     6   ar
     6     6     7    1
     7     7     8    2
     8     8     9    1
     9     9    10    2
    10    10    11    1
    11    11    12    1
    12    12    13    2
    13    13    14    1
    14    14    15    2
    15    15     7    1
    16    15    11    1
    17     6    16   ar
    18    16    17   ar
    19    17     3   ar
    20     1    18    1
    21     1    19    1
    22     1    20    1
    23     2    21    1
    24     2    22    1
    25     4    23    1
    26     5    24    1
    27     8    25    1
    28     9    26    1
    29    10    27    1
    30    13    28    1
    31    16    29    1
    32    17    30    1
