@<TRIPOS>MOLECULE

  30   31
SMALL
USER_CHARGES
@<TRIPOS>ATOM
   1 C1          -1.0793    -0.3016     1.0000 C.3          1    LIG   0.0000
   2 C2           0.4360    -0.1824     1.0000 C.2          1    LIG   0.0000
   3 O3           1.1157    -1.1713     1.0000 O.2          1    LIG   0.0000
   4 O4           1.0000     1.0000     1.0000 O.3          1    LIG   0.0000
   5 C5           2.4200     1.0000     1.0000 C.3          1    LIG   0.0000
   6 C6           2.9266     1.7164    -0.2408 C.ar         1    LIG   0.0000
   7 C7           2.0140     2.2400    -1.1505 C.ar         1    LIG   0.0000
   8 C8           2.4829     2.8937    -2.2850 C.ar         1    LIG   0.0000
   9 C9           3.8514     3.0198    -2.4989 C.ar         1    LIG   0.0000
  10 C10          4.3079     3.6761    -3.6371 C.ar         1    LIG   0.0000
  11 C11          5.6770     3.7978    -3.8489 C.ar         1    LIG   0.0000
  12 C12          6.5840     3.2710    -2.9356 C.ar         1    LIG   0.0000
  13 C13          6.1243     2.6151    -1.7985 C.ar         1    LIG   0.0000
  14 C14          4.7555     2.4912    -1.5823 C.ar         1    LIG   0.0000
  15 C15          4.2975     1.8344    -0.4452 C.ar         1    LIG   0.0000
  16 C16          2.9267     1.7165     2.2411 C.3          1    LIG   0.0000
  17 F17          1.8922     2.1345     2.9650 F            1    LIG   0.0000
  18 F18          3.6656     0.8806     2.9650 F            1    LIG   0.0000
  19 F19          3.6656     2.7615     1.8791 F            1    LIG   0.0000
  20 H            2.7533     0.0572     1.0000 H            1    LIG   0.0000
  21 H           -1.4856     0.6121     1.0000 H            1    LIG   0.0000
  22 H           -1.3746    -0.7977     0.1835 H            1    LIG   0.0000
  23 H           -1.3746    -0.7977     1.8165 H            1    LIG   0.0000
  24 H            1.0312     2.1475    -0.9905 H            1    LIG   0.0000
  25 H            1.8362     3.2729    -2.9468 H            1    LIG   0.0000
  26 H            3.6588     4.0562    -4.2959 H            1    LIG   0.0000
  27 H            6.0123     4.2683    -4.6651 H            1    LIG   0.0000
  28 H            7.5666     3.3637    -3.0965 H            1    LIG   0.0000
  29 H            6.7739     2.2349    -1.1401 H            1    LIG   0.0000
  30 H            4.9439     1.4527     0.2155 H            1    LIG   0.0000
@<TRIPOS>BOND
   1        1        2 1
   2        2        3 2
   3        2        4 1
   4        4        5 1
   5        5        6 1
   6        6        7 ar
   7        7        8 ar
   8        8        9 ar
   9        9       10 ar
  10       10       11 ar
  11       11       12 ar
  12       12       13 ar
  13       13       14 ar
  14       14        9 ar
  15       14       15 ar
  16       15        6 ar
  17        5       16 1
  18       16       17 1
  19       16       18 1
  20       16       19 1
  21        5       20 1
  22        1       21 1
  23        1       22 1
  24        1       23 1
  25        7       24 1
  26        8       25 1
  27       10       26 1
  28       11       27 1
  29       12       28 1
  30       13       29 1
  31       15       30 1

@<TRIPOS>MOLECULE

  30   31
SMALL
USER_CHARGES
@<TRIPOS>ATOM
   1 C1          -1.0793    -0.3016     1.0000 C.3          1    LIG   0.0000
   2 C2           0.4360    -0.1824     1.0000 C.2          1    LIG   0.0000
   3 O3           1.1157    -1.1713     1.0000 O.2          1    LIG   0.0000
   4 O4           1.0000     1.0000     1.0000 O.3          1    LIG   0.0000
   5 C5           2.4200     1.0000     1.0000 C.3          1    LIG   0.0000
   6 C6           2.9266     1.7164    -0.2408 C.ar         1    LIG   0.0000
   7 C7           4.2961     1.8389    -0.4504 C.ar         1    LIG   0.0000
   8 C8           4.7543     2.4965    -1.5870 C.ar         1    LIG   0.0000
   9 C9           3.8461     3.0212    -2.5003 C.ar         1    LIG   0.0000
  10 C10          4.3167     3.6762    -3.6334 C.ar         1    LIG   0.0000
  11 C11          3.4054     4.2019    -4.5429 C.ar         1    LIG   0.0000
  12 C12          2.0373     4.0766    -4.3267 C.ar         1    LIG   0.0000
  13 C13          1.5697     3.4211    -3.1925 C.ar         1    LIG   0.0000
  14 C14          2.4777     2.8934    -2.2800 C.ar         1    LIG   0.0000
  15 C15          2.0086     2.2390    -1.1460 C.ar         1    LIG   0.0000
  16 C16          2.9267     1.7165     2.2411 C.3          1    LIG   0.0000
  17 F17          1.8922     2.1345     2.9650 F            1    LIG   0.0000
  18 F18          3.6656     0.8806     2.9650 F            1    LIG   0.0000
  19 F19          3.6656     2.7615     1.8791 F            1    LIG   0.0000
  20 H            2.7533     0.0572     1.0000 H            1    LIG   0.0000
  21 H           -1.4856     0.6121     1.0000 H            1    LIG   0.0000
  22 H           -1.3746    -0.7977     0.1835 H            1    LIG   0.0000
  23 H           -1.3746    -0.7977     1.8165 H            1    LIG   0.0000
  24 H            4.9443     1.4583     0.2091 H            1    LIG   0.0000
  25 H            5.7367     2.5920    -1.7475 H            1    LIG   0.0000
  26 H            5.2997     3.7682    -3.7923 H            1    LIG   0.0000
  27 H            3.7368     4.6742    -5.3597 H            1    LIG   0.0000
  28 H            1.3898     4.4578    -4.9865 H            1    LIG   0.0000
  29 H            0.5866     3.3297    -3.0340 H            1    LIG   0.0000
  30 H            1.0263     2.1456    -0.9838 H            1    LIG   0.0000
@<TRIPOS>BOND
   1        1        2 1
   2        2        3 2
   3        2        4 1
   4        4        5 1
   5        5        6 1
   6        6        7 ar
   7        7        8 ar
   8        8        9 ar
   9        9       10 ar
  10       10       11 ar
  11       11       12 ar
  12       12       13 ar
  13       13       14 ar
  14       14        9 ar
  15       14       15 ar
  16       15        6 ar
  17        5       16 1
  18       16       17 1
  19       16       18 1
  20       16       19 1
  21        5       20 1
  22        1       21 1
  23        1       22 1
  24        1       23 1
  25        7       24 1
  26        8       25 1
  27       10       26 1
  28       11       27 1
  29       12       28 1
  30       13       29 1
  31       15       30 1

@<TRIPOS>MOLECULE

  30   31
SMALL
USER_CHARGES
@<TRIPOS>ATOM
   1 C1          -1.0793    -0.3016     1.0000 C.3          1    LIG   0.0000
   2 C2           0.4360    -0.1824     1.0000 C.2          1    LIG   0.0000
   3 O3           1.1157    -1.1713     1.0000 O.2          1    LIG   0.0000
   4 O4           1.0000     1.0000     1.0000 O.3          1    LIG   0.0000
   5 C5           2.4200     1.0000     1.0000 C.3          1    LIG   0.0000
   6 C6           2.9266     1.7164    -0.2408 C.ar         1    LIG   0.0000
   7 C7           2.9556     3.1068    -0.2657 C.ar         1    LIG   0.0000
   8 C8           3.4190     3.7573    -1.4041 C.ar         1    LIG   0.0000
   9 C9           3.8489     3.0180    -2.5010 C.ar         1    LIG   0.0000
  10 C10          4.3106     3.6803    -3.6335 C.ar         1    LIG   0.0000
  11 C11          4.7371     2.9376    -4.7292 C.ar         1    LIG   0.0000
  12 C12          4.7044     1.5475    -4.6980 C.ar         1    LIG   0.0000
  13 C13          4.2420     0.8882    -3.5640 C.ar         1    LIG   0.0000
  14 C14          3.8147     1.6271    -2.4653 C.ar         1    LIG   0.0000
  15 C15          3.3518     0.9663    -1.3325 C.ar         1    LIG   0.0000
  16 C16          2.9267     1.7165     2.2411 C.3          1    LIG   0.0000
  17 F17          1.8922     2.1345     2.9650 F            1    LIG   0.0000
  18 F18          3.6656     0.8806     2.9650 F            1    LIG   0.0000
  19 F19          3.6656     2.7615     1.8791 F            1    LIG   0.0000
  20 H            2.7533     0.0572     1.0000 H            1    LIG   0.0000
  21 H           -1.4856     0.6121     1.0000 H            1    LIG   0.0000
  22 H           -1.3746    -0.7977     0.1835 H            1    LIG   0.0000
  23 H           -1.3746    -0.7977     1.8165 H            1    LIG   0.0000
  24 H            2.6466     3.6329     0.5266 H            1    LIG   0.0000
  25 H            3.4432     4.7566    -1.4341 H            1    LIG   0.0000
  26 H            4.3357     4.6796    -3.6596 H            1    LIG   0.0000
  27 H            5.0702     3.4071    -5.5469 H            1    LIG   0.0000
  28 H            5.0133     1.0221    -5.4908 H            1    LIG   0.0000
  29 H            4.2169    -0.1112    -3.5385 H            1    LIG   0.0000
  30 H            3.3250    -0.0329    -1.3031 H            1    LIG   0.0000
@<TRIPOS>BOND
   1        1        2 1
   2        2        3 2
   3        2        4 1
   4        4        5 1
   5        5        6 1
   6        6        7 ar
   7        7        8 ar
   8        8        9 ar
   9        9       10 ar
  10       10       11 ar
  11       11       12 ar
  12       12       13 ar
  13       13       14 ar
  14       14        9 ar
  15       14       15 ar
  16       15        6 ar
  17        5       16 1
  18       16       17 1
  19       16       18 1
  20       16       19 1
  21        5       20 1
  22        1       21 1
  23        1       22 1
  24        1       23 1
  25        7       24 1
  26        8       25 1
  27       10       26 1
  28       11       27 1
  29       12       28 1
  30       13       29 1
  31       15       30 1

@<TRIPOS>MOLECULE

  30   31
SMALL
USER_CHARGES
@<TRIPOS>ATOM
   1 C1          -1.0793    -0.3016     1.0000 C.3          1    LIG   0.0000
   2 C2           0.4360    -0.1824     1.0000 C.2          1    LIG   0.0000
   3 O3           1.1157    -1.1713     1.0000 O.2          1    LIG   0.0000
   4 O4           1.0000     1.0000     1.0000 O.3          1    LIG   0.0000
   5 C5           2.4200     1.0000     1.0000 C.3          1    LIG   0.0000
   6 C6           2.9266     1.7164    -0.2408 C.ar         1    LIG   0.0000
   7 C7           2.2801     2.8670    -0.6799 C.ar         1    LIG   0.0000
   8 C8           2.7471     3.5180    -1.8166 C.ar         1    LIG   0.0000
   9 C9           3.8506     3.0184    -2.5001 C.ar         1    LIG   0.0000
  10 C10          4.3083     3.6788    -3.6353 C.ar         1    LIG   0.0000
  11 C11          5.4104     3.1746    -4.3175 C.ar         1    LIG   0.0000
  12 C12          6.0515     2.0231    -3.8735 C.ar         1    LIG   0.0000
  13 C13          5.5913     1.3649    -2.7379 C.ar         1    LIG   0.0000
  14 C14          4.4892     1.8658    -2.0521 C.ar         1    LIG   0.0000
  15 C15          4.0298     1.2060    -0.9173 C.ar         1    LIG   0.0000
  16 C16          2.9267     1.7165     2.2411 C.3          1    LIG   0.0000
  17 F17          1.8922     2.1345     2.9650 F            1    LIG   0.0000
  18 F18          3.6656     0.8806     2.9650 F            1    LIG   0.0000
  19 F19          3.6656     2.7615     1.8791 F            1    LIG   0.0000
  20 H            2.7533     0.0572     1.0000 H            1    LIG   0.0000
  21 H           -1.4856     0.6121     1.0000 H            1    LIG   0.0000
  22 H           -1.3746    -0.7977     0.1835 H            1    LIG   0.0000
  23 H           -1.3746    -0.7977     1.8165 H            1    LIG   0.0000
  24 H            1.4880     3.2223    -0.1835 H            1    LIG   0.0000
  25 H            2.2895     4.3453    -2.1426 H            1    LIG   0.0000
  26 H            3.8500     4.5071    -3.9575 H            1    LIG   0.0000
  27 H            5.7449     3.6443    -5.1345 H            1    LIG   0.0000
  28 H            6.8433     1.6683    -4.3706 H            1    LIG   0.0000
  29 H            6.0498     0.5364    -2.4163 H            1    LIG   0.0000
  30 H            4.4855     0.3772    -0.5925 H            1    LIG   0.0000
@<TRIPOS>BOND
   1        1        2 1
   2        2        3 2
   3        2        4 1
   4        4        5 1
   5        5        6 1
   6        6        7 ar
   7        7        8 ar
   8        8        9 ar
   9        9       10 ar
  10       10       11 ar
  11       11       12 ar
  12       12       13 ar
  13       13       14 ar
  14       14        9 ar
  15       14       15 ar
  16       15        6 ar
  17        5       16 1
  18       16       17 1
  19       16       18 1
  20       16       19 1
  21        5       20 1
  22        1       21 1
  23        1       22 1
  24        1       23 1
  25        7       24 1
  26        8       25 1
  27       10       26 1
  28       11       27 1
  29       12       28 1
  30       13       29 1
  31       15       30 1

@<TRIPOS>MOLECULE

  30   31
SMALL
USER_CHARGES
@<TRIPOS>ATOM
   1 C1          -1.0793    -0.3016     1.0000 C.3          1    LIG   0.0000
   2 C2           0.4360    -0.1824     1.0000 C.2          1    LIG   0.0000
   3 O3           1.1157    -1.1713     1.0000 O.2          1    LIG   0.0000
   4 O4           1.0000     1.0000     1.0000 O.3          1    LIG   0.0000
   5 C5           2.4200     1.0000     1.0000 C.3          1    LIG   0.0000
   6 C6           2.9266     1.7164    -0.2408 C.ar         1    LIG   0.0000
   7 C7           3.8895     1.1075    -1.0387 C.ar         1    LIG   0.0000
   8 C8           4.3504     1.7680    -2.1725 C.ar         1    LIG   0.0000
   9 C9           3.8472     3.0228    -2.4989 C.ar         1    LIG   0.0000
  10 C10          4.3159     3.6730    -3.6356 C.ar         1    LIG   0.0000
  11 C11          3.8122     4.9288    -3.9572 C.ar         1    LIG   0.0000
  12 C12          2.8502     5.5322    -3.1544 C.ar         1    LIG   0.0000
  13 C13          2.3836     4.8795    -2.0183 C.ar         1    LIG   0.0000
  14 C14          2.8843     3.6230    -1.6927 C.ar         1    LIG   0.0000
  15 C15          2.4174     2.9720    -0.5559 C.ar         1    LIG   0.0000
  16 C16          2.9267     1.7165     2.2411 C.3          1    LIG   0.0000
  17 F17          1.8922     2.1345     2.9650 F            1    LIG   0.0000
  18 F18          3.6656     0.8806     2.9650 F            1    LIG   0.0000
  19 F19          3.6656     2.7615     1.8791 F            1    LIG   0.0000
  20 H            2.7533     0.0572     1.0000 H            1    LIG   0.0000
  21 H           -1.4856     0.6121     1.0000 H            1    LIG   0.0000
  22 H           -1.3746    -0.7977     0.1835 H            1    LIG   0.0000
  23 H           -1.3746    -0.7977     1.8165 H            1    LIG   0.0000
  24 H            4.2465     0.2045    -0.7997 H            1    LIG   0.0000
  25 H            5.0436     1.3407    -2.7529 H            1    LIG   0.0000
  26 H            5.0075     3.2421    -4.2153 H            1    LIG   0.0000
  27 H            4.1447     5.4020    -4.7730 H            1    LIG   0.0000
  28 H            2.4939     6.4354    -3.3940 H            1    LIG   0.0000
  29 H            1.6921     5.3109    -1.4388 H            1    LIG   0.0000
  30 H            1.7261     3.4001     0.0262 H            1    LIG   0.0000
@<TRIPOS>BOND
   1        1        2 1
   2        2        3 2
   3        2        4 1
   4        4        5 1
   5        5        6 1
   6        6        7 ar
   7        7        8 ar
   8        8        9 ar
   9        9       10 ar
  10       10       11 ar
  11       11       12 ar
  12       12       13 ar
  13       13       14 ar
  14       14        9 ar
  15       14       15 ar
  16       15        6 ar
  17        5       16 1
  18       16       17 1
  19       16       18 1
  20       16       19 1
  21        5       20 1
  22        1       21 1
  23        1       22 1
  24        1       23 1
  25        7       24 1
  26        8       25 1
  27       10       26 1
  28       11       27 1
  29       12       28 1
  30       13       29 1
  31       15       30 1

@<TRIPOS>MOLECULE

  30   31
SMALL
USER_CHARGES
@<TRIPOS>ATOM
   1 C1          -1.0793    -0.3016     1.0000 C.3          1    LIG   0.0000
   2 C2           0.4360    -0.1824     1.0000 C.2          1    LIG   0.0000
   3 O3           1.1157    -1.1713     1.0000 O.2          1    LIG   0.0000
   4 O4           1.0000     1.0000     1.0000 O.3          1    LIG   0.0000
   5 C5           2.4200     1.0000     1.0000 C.3          1    LIG   0.0000
   6 C6           2.9266     2.4110     0.7512 C.ar         1    LIG   0.0000
   7 C7           2.0140     3.4445     0.5676 C.ar         1    LIG   0.0000
   8 C8           2.4829     4.7336     0.3391 C.ar         1    LIG   0.0000
   9 C9           3.8514     4.9786     0.2982 C.ar         1    LIG   0.0000
  10 C10          4.3079     6.2723     0.0693 C.ar         1    LIG   0.0000
  11 C11          5.6770     6.5128     0.0265 C.ar         1    LIG   0.0000
  12 C12          6.5840     5.4746     0.2099 C.ar         1    LIG   0.0000
  13 C13          6.1243     4.1820     0.4385 C.ar         1    LIG   0.0000
  14 C14          4.7555     3.9366     0.4825 C.ar         1    LIG   0.0000
  15 C15          4.2975     2.6434     0.7102 C.ar         1    LIG   0.0000
  16 C16          2.9267     0.5099     2.3466 C.3          1    LIG   0.0000
  17 F17          1.8922     0.2239     3.1322 F            1    LIG   0.0000
  18 F18          3.6656    -0.5821     2.1716 F            1    LIG   0.0000
  19 F19          3.6656     1.4588     2.9144 F            1    LIG   0.0000
  20 H            2.7533     0.3940     0.2778 H            1    LIG   0.0000
  21 H           -1.4856     0.6121     1.0000 H            1    LIG   0.0000
  22 H           -1.3746    -0.7977     0.1835 H            1    LIG   0.0000
  23 H           -1.3746    -0.7977     1.8165 H            1    LIG   0.0000
  24 H            1.0312     3.2624     0.5996 H            1    LIG   0.0000
  25 H            1.8362     5.4844     0.2042 H            1    LIG   0.0000
  26 H            3.6588     7.0214    -0.0629 H            1    LIG   0.0000
  27 H            6.0123     7.4405    -0.1377 H            1    LIG   0.0000
  28 H            7.5666     5.6575     0.1775 H            1    LIG   0.0000
  29 H            6.7739     3.4332     0.5704 H            1    LIG   0.0000
  30 H            4.9439     1.8919     0.8425 H            1    LIG   0.0000
@<TRIPOS>BOND
   1        1        2 1
   2        2        3 2
   3        2        4 1
   4        4        5 1
   5        5        6 1
   6        6        7 ar
   7        7        8 ar
   8        8        9 ar
   9        9       10 ar
  10       10       11 ar
  11       11       12 ar
  12       12       13 ar
  13       13       14 ar
  14       14        9 ar
  15       14       15 ar
  16       15        6 ar
  17        5       16 1
  18       16       17 1
  19       16       18 1
  20       16       19 1
  21        5       20 1
  22        1       21 1
  23        1       22 1
  24        1       23 1
  25        7       24 1
  26        8       25 1
  27       10       26 1
  28       11       27 1
  29       12       28 1
  30       13       29 1
  31       15       30 1

@<TRIPOS>MOLECULE

  30   31
SMALL
USER_CHARGES
@<TRIPOS>ATOM
   1 C1          -1.0793    -0.3016     1.0000 C.3          1    LIG   0.0000
   2 C2           0.4360    -0.1824     1.0000 C.2          1    LIG   0.0000
   3 O3           1.1157    -1.1713     1.0000 O.2          1    LIG   0.0000
   4 O4           1.0000     1.0000     1.0000 O.3          1    LIG   0.0000
   5 C5           2.4200     1.0000     1.0000 C.3          1    LIG   0.0000
   6 C6           2.9266     2.4110     0.7512 C.ar         1    LIG   0.0000
   7 C7           4.2961     2.6503     0.7104 C.ar         1    LIG   0.0000
   8 C8           4.7543     3.9437     0.4835 C.ar         1    LIG   0.0000
   9 C9           3.8461     4.9806     0.2984 C.ar         1    LIG   0.0000
  10 C10          4.3167     6.2696     0.0718 C.ar         1    LIG   0.0000
  11 C11          3.4054     7.3043    -0.1101 C.ar         1    LIG   0.0000
  12 C12          2.0373     7.0580    -0.0671 C.ar         1    LIG   0.0000
  13 C13          1.5697     5.7679     0.1598 C.ar         1    LIG   0.0000
  14 C14          2.4777     4.7296     0.3421 C.ar         1    LIG   0.0000
  15 C15          2.0086     3.4404     0.5697 C.ar         1    LIG   0.0000
  16 C16          2.9267     0.5099     2.3466 C.3          1    LIG   0.0000
  17 F17          1.8922     0.2239     3.1322 F            1    LIG   0.0000
  18 F18          3.6656    -0.5821     2.1716 F            1    LIG   0.0000
  19 F19          3.6656     1.4588     2.9144 F            1    LIG   0.0000
  20 H            2.7533     0.3940     0.2778 H            1    LIG   0.0000
  21 H           -1.4856     0.6121     1.0000 H            1    LIG   0.0000
  22 H           -1.3746    -0.7977     0.1835 H            1    LIG   0.0000
  23 H           -1.3746    -0.7977     1.8165 H            1    LIG   0.0000
  24 H            4.9443     1.9005     0.8427 H            1    LIG   0.0000
  25 H            5.7367     4.1281     0.4535 H            1    LIG   0.0000
  26 H            5.2997     6.4505     0.0401 H            1    LIG   0.0000
  27 H            3.7368     8.2335    -0.2734 H            1    LIG   0.0000
  28 H            1.3898     7.8085    -0.1993 H            1    LIG   0.0000
  29 H            0.5866     5.5877     0.1917 H            1    LIG   0.0000
  30 H            1.0263     3.2560     0.6024 H            1    LIG   0.0000
@<TRIPOS>BOND
   1        1        2 1
   2        2        3 2
   3        2        4 1
   4        4        5 1
   5        5        6 1
   6        6        7 ar
   7        7        8 ar
   8        8        9 ar
   9        9       10 ar
  10       10       11 ar
  11       11       12 ar
  12       12       13 ar
  13       13       14 ar
  14       14        9 ar
  15       14       15 ar
  16       15        6 ar
  17        5       16 1
  18       16       17 1
  19       16       18 1
  20       16       19 1
  21        5       20 1
  22        1       21 1
  23        1       22 1
  24        1       23 1
  25        7       24 1
  26        8       25 1
  27       10       26 1
  28       11       27 1
  29       12       28 1
  30       13       29 1
  31       15       30 1

@<TRIPOS>MOLECULE

  30   31
SMALL
USER_CHARGES
@<TRIPOS>ATOM
   1 C1          -1.0793    -0.3016     1.0000 C.3          1    LIG   0.0000
   2 C2           0.4360    -0.1824     1.0000 C.2          1    LIG   0.0000
   3 O3           1.1157    -1.1713     1.0000 O.2          1    LIG   0.0000
   4 O4           1.0000     1.0000     1.0000 O.3          1    LIG   0.0000
   5 C5           2.4200     1.0000     1.0000 C.3          1    LIG   0.0000
   6 C6           2.9266     2.4110     0.7512 C.ar         1    LIG   0.0000
   7 C7           2.9556     3.3237     1.8003 C.ar         1    LIG   0.0000
   8 C8           3.4190     4.6141     1.5669 C.ar         1    LIG   0.0000
   9 C9           3.8489     4.9791     0.2955 C.ar         1    LIG   0.0000
  10 C10          4.3106     6.2723     0.0749 C.ar         1    LIG   0.0000
  11 C11          4.7371     6.6343    -1.1984 C.ar         1    LIG   0.0000
  12 C12          4.7044     5.7168    -2.2431 C.ar         1    LIG   0.0000
  13 C13          4.2420     4.4243    -2.0193 C.ar         1    LIG   0.0000
  14 C14          3.8147     4.0576    -0.7471 C.ar         1    LIG   0.0000
  15 C15          3.3518     2.7651    -0.5251 C.ar         1    LIG   0.0000
  16 C16          2.9267     0.5099     2.3466 C.3          1    LIG   0.0000
  17 F17          1.8922     0.2239     3.1322 F            1    LIG   0.0000
  18 F18          3.6656    -0.5821     2.1716 F            1    LIG   0.0000
  19 F19          3.6656     1.4588     2.9144 F            1    LIG   0.0000
  20 H            2.7533     0.3940     0.2778 H            1    LIG   0.0000
  21 H           -1.4856     0.6121     1.0000 H            1    LIG   0.0000
  22 H           -1.3746    -0.7977     0.1835 H            1    LIG   0.0000
  23 H           -1.3746    -0.7977     1.8165 H            1    LIG   0.0000
  24 H            2.6466     3.0551     2.7126 H            1    LIG   0.0000
  25 H            3.4432     5.2793     2.3131 H            1    LIG   0.0000
  26 H            4.3357     6.9347     0.8236 H            1    LIG   0.0000
  27 H            5.0702     7.5625    -1.3643 H            1    LIG   0.0000
  28 H            5.0133     5.9865    -3.1552 H            1    LIG   0.0000
  29 H            4.2169     3.7624    -2.7685 H            1    LIG   0.0000
  30 H            3.3250     2.1003    -1.2717 H            1    LIG   0.0000
@<TRIPOS>BOND
   1        1        2 1
   2        2        3 2
   3        2        4 1
   4        4        5 1
   5        5        6 1
   6        6        7 ar
   7        7        8 ar
   8        8        9 ar
   9        9       10 ar
  10       10       11 ar
  11       11       12 ar
  12       12       13 ar
  13       13       14 ar
  14       14        9 ar
  15       14       15 ar
  16       15        6 ar
  17        5       16 1
  18       16       17 1
  19       16       18 1
  20       16       19 1
  21        5       20 1
  22        1       21 1
  23        1       22 1
  24        1       23 1
  25        7       24 1
  26        8       25 1
  27       10       26 1
  28       11       27 1
  29       12       28 1
  30       13       29 1
  31       15       30 1

@<TRIPOS>MOLECULE

  30   31
SMALL
USER_CHARGES
@<TRIPOS>ATOM
   1 C1          -1.0793    -0.3016     1.0000 C.3          1    LIG   0.0000
   2 C2           0.4360    -0.1824     1.0000 C.2          1    LIG   0.0000
   3 O3           1.1157    -1.1713     1.0000 O.2          1    LIG   0.0000
   4 O4           1.0000     1.0000     1.0000 O.3          1    LIG   0.0000
   5 C5           2.4200     1.0000     1.0000 C.3          1    LIG   0.0000
   6 C6           2.9266     2.4110     0.7512 C.ar         1    LIG   0.0000
   7 C7           2.2801     3.4869     1.3504 C.ar         1    LIG   0.0000
   8 C8           2.7471     4.7762     1.1184 C.ar         1    LIG   0.0000
   9 C9           3.8506     4.9786     0.2964 C.ar         1    LIG   0.0000
  10 C10          4.3083     6.2727     0.0726 C.ar         1    LIG   0.0000
  11 C11          5.4104     6.4712    -0.7522 C.ar         1    LIG   0.0000
  12 C12          6.0515     5.3909    -1.3489 C.ar         1    LIG   0.0000
  13 C13          5.5913     4.0980    -1.1232 C.ar         1    LIG   0.0000
  14 C14          4.4892     3.8945    -0.2986 C.ar         1    LIG   0.0000
  15 C15          4.0298     2.6011    -0.0746 C.ar         1    LIG   0.0000
  16 C16          2.9267     0.5099     2.3466 C.3          1    LIG   0.0000
  17 F17          1.8922     0.2239     3.1322 F            1    LIG   0.0000
  18 F18          3.6656    -0.5821     2.1716 F            1    LIG   0.0000
  19 F19          3.6656     1.4588     2.9144 F            1    LIG   0.0000
  20 H            2.7533     0.3940     0.2778 H            1    LIG   0.0000
  21 H           -1.4856     0.6121     1.0000 H            1    LIG   0.0000
  22 H           -1.3746    -0.7977     0.1835 H            1    LIG   0.0000
  23 H           -1.3746    -0.7977     1.8165 H            1    LIG   0.0000
  24 H            1.4880     3.3351     1.9417 H            1    LIG   0.0000
  25 H            2.2895     5.5577     1.5426 H            1    LIG   0.0000
  26 H            3.8500     7.0520     0.5000 H            1    LIG   0.0000
  27 H            5.7449     7.3990    -0.9176 H            1    LIG   0.0000
  28 H            6.8433     5.5437    -1.9403 H            1    LIG   0.0000
  29 H            6.0498     3.3191    -1.5511 H            1    LIG   0.0000
  30 H            4.4855     1.8196    -0.5008 H            1    LIG   0.0000
@<TRIPOS>BOND
   1        1        2 1
   2        2        3 2
   3        2        4 1
   4        4        5 1
   5        5        6 1
   6        6        7 ar
   7        7        8 ar
   8        8        9 ar
   9        9       10 ar
  10       10       11 ar
  11       11       12 ar
  12       12       13 ar
  13       13       14 ar
  14       14        9 ar
  15       14       15 ar
  16       15        6 ar
  17        5       16 1
  18       16       17 1
  19       16       18 1
  20       16       19 1
  21        5       20 1
  22        1       21 1
  23        1       22 1
  24        1       23 1
  25        7       24 1
  26        8       25 1
  27       10       26 1
  28       11       27 1
  29       12       28 1
  30       13       29 1
  31       15       30 1

@<TRIPOS>MOLECULE

  30   31
SMALL
USER_CHARGES
@<TRIPOS>ATOM
   1 C1          -1.0793    -0.3016     1.0000 C.3          1    LIG   0.0000
   2 C2           0.4360    -0.1824     1.0000 C.2          1    LIG   0.0000
   3 O3           1.1157    -1.1713     1.0000 O.2          1    LIG   0.0000
   4 O4           1.0000     1.0000     1.0000 O.3          1    LIG   0.0000
   5 C5           2.4200     1.0000     1.0000 C.3          1    LIG   0.0000
   6 C6           2.9266     2.4110     0.7512 C.ar         1    LIG   0.0000
   7 C7           3.8895     2.6308    -0.2281 C.ar         1    LIG   0.0000
   8 C8           4.3504     3.9239    -0.4509 C.ar         1    LIG   0.0000
   9 C9           3.8472     4.9805     0.3005 C.ar         1    LIG   0.0000
  10 C10          4.3159     6.2692     0.0679 C.ar         1    LIG   0.0000
  11 C11          3.8122     7.3228     0.8232 C.ar         1    LIG   0.0000
  12 C12          2.8502     7.0957     1.8015 C.ar         1    LIG   0.0000
  13 C13          2.3836     5.8059     2.0318 C.ar         1    LIG   0.0000
  14 C14          2.8843     4.7488     1.2785 C.ar         1    LIG   0.0000
  15 C15          2.4174     3.4595     1.5106 C.ar         1    LIG   0.0000
  16 C16          2.9267     0.5099     2.3466 C.3          1    LIG   0.0000
  17 F17          1.8922     0.2239     3.1322 F            1    LIG   0.0000
  18 F18          3.6656    -0.5821     2.1716 F            1    LIG   0.0000
  19 F19          3.6656     1.4588     2.9144 F            1    LIG   0.0000
  20 H            2.7533     0.3940     0.2778 H            1    LIG   0.0000
  21 H           -1.4856     0.6121     1.0000 H            1    LIG   0.0000
  22 H           -1.3746    -0.7977     0.1835 H            1    LIG   0.0000
  23 H           -1.3746    -0.7977     1.8165 H            1    LIG   0.0000
  24 H            4.2465     1.8673    -0.7662 H            1    LIG   0.0000
  25 H            5.0436     4.0939    -1.1513 H            1    LIG   0.0000
  26 H            5.0075     6.4364    -0.6348 H            1    LIG   0.0000
  27 H            4.1447     8.2519     0.6613 H            1    LIG   0.0000
  28 H            2.4939     7.8598     2.3393 H            1    LIG   0.0000
  29 H            1.6921     5.6392     2.7348 H            1    LIG   0.0000
  30 H            1.7261     3.2887     2.2127 H            1    LIG   0.0000
@<TRIPOS>BOND
   1        1        2 1
   2        2        3 2
   3        2        4 1
   4        4        5 1
   5        5        6 1
   6        6        7 ar
   7        7        8 ar
   8        8        9 ar
   9        9       10 ar
  10       10       11 ar
  11       11       12 ar
  12       12       13 ar
  13       13       14 ar
  14       14        9 ar
  15       14       15 ar
  16       15        6 ar
  17        5       16 1
  18       16       17 1
  19       16       18 1
  20       16       19 1
  21        5       20 1
  22        1       21 1
  23        1       22 1
  24        1       23 1
  25        7       24 1
  26        8       25 1
  27       10       26 1
  28       11       27 1
  29       12       28 1
  30       13       29 1
  31       15       30 1

@<TRIPOS>MOLECULE

  30   31
SMALL
USER_CHARGES
@<TRIPOS>ATOM
   1 C1          -1.0793    -0.3016     1.0000 C.3          1    LIG   0.0000
   2 C2           0.4360    -0.1824     1.0000 C.2          1    LIG   0.0000
   3 O3           1.1157    -1.1713     1.0000 O.2          1    LIG   0.0000
   4 O4           1.0000     1.0000     1.0000 O.3          1    LIG   0.0000
   5 C5           2.4200     1.0000     1.0000 C.3          1    LIG   0.0000
   6 C6           2.9266     0.5100    -0.3464 C.ar         1    LIG   0.0000
   7 C7           2.0140     0.1497    -1.3322 C.ar         1    LIG   0.0000
   8 C8           2.4829    -0.2992    -2.5622 C.ar         1    LIG   0.0000
   9 C9           3.8514    -0.3821    -2.7963 C.ar         1    LIG   0.0000
  10 C10          4.3079    -0.8321    -4.0306 C.ar         1    LIG   0.0000
  11 C11          5.6770    -0.9160    -4.2600 C.ar         1    LIG   0.0000
  12 C12          6.5840    -0.5551    -3.2694 C.ar         1    LIG   0.0000
  13 C13          6.1243    -0.1056    -2.0361 C.ar         1    LIG   0.0000
  14 C14          4.7555    -0.0196    -1.8022 C.ar         1    LIG   0.0000
  15 C15          4.2975     0.4293    -0.5681 C.ar         1    LIG   0.0000
  16 C16          2.9267     2.4113     1.2488 C.3          1    LIG   0.0000
  17 F17          1.8922     3.2346     1.3940 F            1    LIG   0.0000
  18 F18          3.6656     2.4285     2.3546 F            1    LIG   0.0000
  19 F19          3.6656     2.8057     0.2157 F            1    LIG   0.0000
  20 H            2.7533     0.3940     1.7222 H            1    LIG   0.0000
  21 H           -1.4856     0.6121     1.0000 H            1    LIG   0.0000
  22 H           -1.3746    -0.7977     0.1835 H            1    LIG   0.0000
  23 H           -1.3746    -0.7977     1.8165 H            1    LIG   0.0000
  24 H            1.0312     0.2128    -1.1585 H            1    LIG   0.0000
  25 H            1.8362    -0.5624    -3.2781 H            1    LIG   0.0000
  26 H            3.6588    -1.0924    -4.7454 H            1    LIG   0.0000
  27 H            6.0123    -1.2388    -5.1451 H            1    LIG   0.0000
  28 H            7.5666    -0.6188    -3.4439 H            1    LIG   0.0000
  29 H            6.7739     0.1544    -1.3216 H            1    LIG   0.0000
  30 H            4.9439     0.6900     0.1490 H            1    LIG   0.0000
@<TRIPOS>BOND
   1        1        2 1
   2        2        3 2
   3        2        4 1
   4        4        5 1
   5        5        6 1
   6        6        7 ar
   7        7        8 ar
   8        8        9 ar
   9        9       10 ar
  10       10       11 ar
  11       11       12 ar
  12       12       13 ar
  13       13       14 ar
  14       14        9 ar
  15       14       15 ar
  16       15        6 ar
  17        5       16 1
  18       16       17 1
  19       16       18 1
  20       16       19 1
  21        5       20 1
  22        1       21 1
  23        1       22 1
  24        1       23 1
  25        7       24 1
  26        8       25 1
  27       10       26 1
  28       11       27 1
  29       12       28 1
  30       13       29 1
  31       15       30 1

@<TRIPOS>MOLECULE

  30   31
SMALL
USER_CHARGES
@<TRIPOS>ATOM
   1 C1          -1.0793    -0.3016     1.0000 C.3          1    LIG   0.0000
   2 C2           0.4360    -0.1824     1.0000 C.2          1    LIG   0.0000
   3 O3           1.1157    -1.1713     1.0000 O.2          1    LIG   0.0000
   4 O4           1.0000     1.0000     1.0000 O.3          1    LIG   0.0000
   5 C5           2.4200     1.0000     1.0000 C.3          1    LIG   0.0000
   6 C6           2.9266     0.5100    -0.3464 C.ar         1    LIG   0.0000
   7 C7           4.2961     0.4282    -0.5750 C.ar         1    LIG   0.0000
   8 C8           4.7543    -0.0198    -1.8093 C.ar         1    LIG   0.0000
   9 C9           3.8461    -0.3822    -2.7983 C.ar         1    LIG   0.0000
  10 C10          4.3167    -0.8291    -4.0284 C.ar         1    LIG   0.0000
  11 C11          3.4054    -1.1880    -5.0157 C.ar         1    LIG   0.0000
  12 C12          2.0373    -1.1029    -4.7807 C.ar         1    LIG   0.0000
  13 C13          1.5697    -0.6554    -3.5496 C.ar         1    LIG   0.0000
  14 C14          2.4777    -0.2956    -2.5587 C.ar         1    LIG   0.0000
  15 C15          2.0086     0.1525    -1.3286 C.ar         1    LIG   0.0000
  16 C16          2.9267     2.4113     1.2488 C.3          1    LIG   0.0000
  17 F17          1.8922     3.2346     1.3940 F            1    LIG   0.0000
  18 F18          3.6656     2.4285     2.3546 F            1    LIG   0.0000
  19 F19          3.6656     2.8057     0.2157 F            1    LIG   0.0000
  20 H            2.7533     0.3940     1.7222 H            1    LIG   0.0000
  21 H           -1.4856     0.6121     1.0000 H            1    LIG   0.0000
  22 H           -1.3746    -0.7977     0.1835 H            1    LIG   0.0000
  23 H           -1.3746    -0.7977     1.8165 H            1    LIG   0.0000
  24 H            4.9443     0.6887     0.1405 H            1    LIG   0.0000
  25 H            5.7367    -0.0814    -1.9856 H            1    LIG   0.0000
  26 H            5.2997    -0.8918    -4.2010 H            1    LIG   0.0000
  27 H            3.7368    -1.5101    -5.9025 H            1    LIG   0.0000
  28 H            1.3898    -1.3633    -5.4969 H            1    LIG   0.0000
  29 H            0.5866    -0.5927    -3.3776 H            1    LIG   0.0000
  30 H            1.0263     0.2167    -1.1527 H            1    LIG   0.0000
@<TRIPOS>BOND
   1        1        2 1
   2        2        3 2
   3        2        4 1
   4        4        5 1
   5        5        6 1
   6        6        7 ar
   7        7        8 ar
   8        8        9 ar
   9        9       10 ar
  10       10       11 ar
  11       11       12 ar
  12       12       13 ar
  13       13       14 ar
  14       14        9 ar
  15       14       15 ar
  16       15        6 ar
  17        5       16 1
  18       16       17 1
  19       16       18 1
  20       16       19 1
  21        5       20 1
  22        1       21 1
  23        1       22 1
  24        1       23 1
  25        7       24 1
  26        8       25 1
  27       10       26 1
  28       11       27 1
  29       12       28 1
  30       13       29 1
  31       15       30 1

@<TRIPOS>MOLECULE

  30   31
SMALL
USER_CHARGES
@<TRIPOS>ATOM
   1 C1          -1.0793    -0.3016     1.0000 C.3          1    LIG   0.0000
   2 C2           0.4360    -0.1824     1.0000 C.2          1    LIG   0.0000
   3 O3           1.1157    -1.1713     1.0000 O.2          1    LIG   0.0000
   4 O4           1.0000     1.0000     1.0000 O.3          1    LIG   0.0000
   5 C5           2.4200     1.0000     1.0000 C.3          1    LIG   0.0000
   6 C6           2.9266     0.5100    -0.3464 C.ar         1    LIG   0.0000
   7 C7           2.9556     1.3846    -1.4274 C.ar         1    LIG   0.0000
   8 C8           3.4190     0.9307    -2.6576 C.ar         1    LIG   0.0000
   9 C9           3.8489    -0.3847    -2.7963 C.ar         1    LIG   0.0000
  10 C10          4.3106    -0.8266    -4.0316 C.ar         1    LIG   0.0000
  11 C11          4.7371    -2.1434    -4.1669 C.ar         1    LIG   0.0000
  12 C12          4.7044    -3.0129    -3.0820 C.ar         1    LIG   0.0000
  13 C13          4.2420    -2.5681    -1.8480 C.ar         1    LIG   0.0000
  14 C14          3.8147    -1.2515    -1.7078 C.ar         1    LIG   0.0000
  15 C15          3.3518    -0.8084    -0.4735 C.ar         1    LIG   0.0000
  16 C16          2.9267     2.4113     1.2488 C.3          1    LIG   0.0000
  17 F17          1.8922     3.2346     1.3940 F            1    LIG   0.0000
  18 F18          3.6656     2.4285     2.3546 F            1    LIG   0.0000
  19 F19          3.6656     2.8057     0.2157 F            1    LIG   0.0000
  20 H            2.7533     0.3940     1.7222 H            1    LIG   0.0000
  21 H           -1.4856     0.6121     1.0000 H            1    LIG   0.0000
  22 H           -1.3746    -0.7977     0.1835 H            1    LIG   0.0000
  23 H           -1.3746    -0.7977     1.8165 H            1    LIG   0.0000
  24 H            2.6466     2.3298    -1.3212 H            1    LIG   0.0000
  25 H            3.4432     1.5500    -3.4423 H            1    LIG   0.0000
  26 H            4.3357    -0.2043    -4.8139 H            1    LIG   0.0000
  27 H            5.0702    -2.4679    -5.0522 H            1    LIG   0.0000
  28 H            5.0133    -3.9580    -3.1892 H            1    LIG   0.0000
  29 H            4.2169    -3.1909    -1.0661 H            1    LIG   0.0000
  30 H            3.3250    -1.4282     0.3109 H            1    LIG   0.0000
@<TRIPOS>BOND
   1        1        2 1
   2        2        3 2
   3        2        4 1
   4        4        5 1
   5        5        6 1
   6        6        7 ar
   7        7        8 ar
   8        8        9 ar
   9        9       10 ar
  10       10       11 ar
  11       11       12 ar
  12       12       13 ar
  13       13       14 ar
  14       14        9 ar
  15       14       15 ar
  16       15        6 ar
  17        5       16 1
  18       16       17 1
  19       16       18 1
  20       16       19 1
  21        5       20 1
  22        1       21 1
  23        1       22 1
  24        1       23 1
  25        7       24 1
  26        8       25 1
  27       10       26 1
  28       11       27 1
  29       12       28 1
  30       13       29 1
  31       15       30 1

@<TRIPOS>MOLECULE

  30   31
SMALL
USER_CHARGES
@<TRIPOS>ATOM
   1 C1          -1.0793    -0.3016     1.0000 C.3          1    LIG   0.0000
   2 C2           0.4360    -0.1824     1.0000 C.2          1    LIG   0.0000
   3 O3           1.1157    -1.1713     1.0000 O.2          1    LIG   0.0000
   4 O4           1.0000     1.0000     1.0000 O.3          1    LIG   0.0000
   5 C5           2.4200     1.0000     1.0000 C.3          1    LIG   0.0000
   6 C6           2.9266     0.5100    -0.3464 C.ar         1    LIG   0.0000
   7 C7           2.2801     0.9132    -1.5100 C.ar         1    LIG   0.0000
   8 C8           2.7471     0.4609    -2.7394 C.ar         1    LIG   0.0000
   9 C9           3.8506    -0.3838    -2.7960 C.ar         1    LIG   0.0000
  10 C10          4.3083    -0.8290    -4.0316 C.ar         1    LIG   0.0000
  11 C11          5.4104    -1.6756    -4.0839 C.ar         1    LIG   0.0000
  12 C12          6.0515    -2.0757    -2.9163 C.ar         1    LIG   0.0000
  13 C13          5.5913    -1.6289    -1.6822 C.ar         1    LIG   0.0000
  14 C14          4.4892    -0.7815    -1.6250 C.ar         1    LIG   0.0000
  15 C15          4.0298    -0.3363    -0.3902 C.ar         1    LIG   0.0000
  16 C16          2.9267     2.4113     1.2488 C.3          1    LIG   0.0000
  17 F17          1.8922     3.2346     1.3940 F            1    LIG   0.0000
  18 F18          3.6656     2.4285     2.3546 F            1    LIG   0.0000
  19 F19          3.6656     2.8057     0.2157 F            1    LIG   0.0000
  20 H            2.7533     0.3940     1.7222 H            1    LIG   0.0000
  21 H           -1.4856     0.6121     1.0000 H            1    LIG   0.0000
  22 H           -1.3746    -0.7977     0.1835 H            1    LIG   0.0000
  23 H           -1.3746    -0.7977     1.8165 H            1    LIG   0.0000
  24 H            1.4880     1.5219    -1.4631 H            1    LIG   0.0000
  25 H            2.2895     0.7429    -3.5827 H            1    LIG   0.0000
  26 H            3.8500    -0.5433    -4.8732 H            1    LIG   0.0000
  27 H            5.7449    -1.9996    -4.9688 H            1    LIG   0.0000
  28 H            6.8433    -2.6846    -2.9641 H            1    LIG   0.0000
  29 H            6.0498    -1.9150    -0.8409 H            1    LIG   0.0000
  30 H            4.4855    -0.6203     0.4534 H            1    LIG   0.0000
@<TRIPOS>BOND
   1        1        2 1
   2        2        3 2
   3        2        4 1
   4        4        5 1
   5        5        6 1
   6        6        7 ar
   7        7        8 ar
   8        8        9 ar
   9        9       10 ar
  10       10       11 ar
  11       11       12 ar
  12       12       13 ar
  13       13       14 ar
  14       14        9 ar
  15       14       15 ar
  16       15        6 ar
  17        5       16 1
  18       16       17 1
  19       16       18 1
  20       16       19 1
  21        5       20 1
  22        1       21 1
  23        1       22 1
  24        1       23 1
  25        7       24 1
  26        8       25 1
  27       10       26 1
  28       11       27 1
  29       12       28 1
  30       13       29 1
  31       15       30 1

@<TRIPOS>MOLECULE

  30   31
SMALL
USER_CHARGES
@<TRIPOS>ATOM
   1 C1          -1.0793    -0.3016     1.0000 C.3          1    LIG   0.0000
   2 C2           0.4360    -0.1824     1.0000 C.2          1    LIG   0.0000
   3 O3           1.1157    -1.1713     1.0000 O.2          1    LIG   0.0000
   4 O4           1.0000     1.0000     1.0000 O.3          1    LIG   0.0000
   5 C5           2.4200     1.0000     1.0000 C.3          1    LIG   0.0000
   6 C6           2.9266     0.5100    -0.3464 C.ar         1    LIG   0.0000
   7 C7           3.8895    -0.4927    -0.3928 C.ar         1    LIG   0.0000
   8 C8           4.3504    -0.9366    -1.6275 C.ar         1    LIG   0.0000
   9 C9           3.8472    -0.3801    -2.7986 C.ar         1    LIG   0.0000
  10 C10          4.3159    -0.8329    -4.0273 C.ar         1    LIG   0.0000
  11 C11          3.8122    -0.2721    -5.1960 C.ar         1    LIG   0.0000
  12 C12          2.8502     0.7308    -5.1423 C.ar         1    LIG   0.0000
  13 C13          2.3836     1.1816    -3.9120 C.ar         1    LIG   0.0000
  14 C14          2.8843     0.6233    -2.7402 C.ar         1    LIG   0.0000
  15 C15          2.4174     1.0757    -1.5108 C.ar         1    LIG   0.0000
  16 C16          2.9267     2.4113     1.2488 C.3          1    LIG   0.0000
  17 F17          1.8922     3.2346     1.3940 F            1    LIG   0.0000
  18 F18          3.6656     2.4285     2.3546 F            1    LIG   0.0000
  19 F19          3.6656     2.8057     0.2157 F            1    LIG   0.0000
  20 H            2.7533     0.3940     1.7222 H            1    LIG   0.0000
  21 H           -1.4856     0.6121     1.0000 H            1    LIG   0.0000
  22 H           -1.3746    -0.7977     0.1835 H            1    LIG   0.0000
  23 H           -1.3746    -0.7977     1.8165 H            1    LIG   0.0000
  24 H            4.2465    -0.8900     0.4526 H            1    LIG   0.0000
  25 H            5.0436    -1.6559    -1.6733 H            1    LIG   0.0000
  26 H            5.0075    -1.5539    -4.0699 H            1    LIG   0.0000
  27 H            4.1447    -0.5928    -6.0829 H            1    LIG   0.0000
  28 H            2.4939     1.1278    -5.9881 H            1    LIG   0.0000
  29 H            1.6921     1.9028    -3.8700 H            1    LIG   0.0000
  30 H            1.7261     1.7968    -1.4645 H            1    LIG   0.0000
@<TRIPOS>BOND
   1        1        2 1
   2        2        3 2
   3        2        4 1
   4        4        5 1
   5        5        6 1
   6        6        7 ar
   7        7        8 ar
   8        8        9 ar
   9        9       10 ar
  10       10       11 ar
  11       11       12 ar
  12       12       13 ar
  13       13       14 ar
  14       14        9 ar
  15       14       15 ar
  16       15        6 ar
  17        5       16 1
  18       16       17 1
  19       16       18 1
  20       16       19 1
  21        5       20 1
  22        1       21 1
  23        1       22 1
  24        1       23 1
  25        7       24 1
  26        8       25 1
  27       10       26 1
  28       11       27 1
  29       12       28 1
  30       13       29 1
  31       15       30 1

