@<TRIPOS>MOLECULE
*****
 30 31 0 0 0
SMALL
USER_CHARGES

@<TRIPOS>ATOM
      1 C1         -1.0793   -0.3016    1.0000 C.3     1  LIG1        0.0000
      2 C2          0.4360   -0.1824    1.0000 C.2     1  LIG1        0.0000
      3 O3          1.1157   -1.1713    1.0000 O.2     1  LIG1        0.0000
      4 O4          1.0000    1.0000    1.0000 O.3     1  LIG1        0.0000
      5 C5          2.4200    1.0000    1.0000 C.3     1  LIG1        0.0000
      6 C6          2.9266    0.5100   -0.3464 C.3     1  LIG1        0.0000
      7 C7          3.8895   -0.4927   -0.3928 C.3     1  LIG1        0.0000
      8 C8          4.3504   -0.9366   -1.6275 C.3     1  LIG1        0.0000
      9 C9          3.8472   -0.3801   -2.7986 C.3     1  LIG1        0.0000
     10 C10         4.3159   -0.8329   -4.0273 C.3     1  LIG1        0.0000
     11 C11         3.8122   -0.2721   -5.1960 C.3     1  LIG1        0.0000
     12 C12         2.8502    0.7308   -5.1423 C.3     1  LIG1        0.0000
     13 C13         2.3836    1.1816   -3.9120 C.3     1  LIG1        0.0000
     14 C14         2.8843    0.6233   -2.7402 C.3     1  LIG1        0.0000
     15 C15         2.4174    1.0757   -1.5108 C.3     1  LIG1        0.0000
     16 C16         2.9267    2.4113    1.2488 C.3     1  LIG1        0.0000
     17 F17         1.8922    3.2346    1.3940 F       1  LIG1        0.0000
     18 F18         3.6656    2.4285    2.3546 F       1  LIG1        0.0000
     19 F19         3.6656    2.8057    0.2157 F       1  LIG1        0.0000
     20 H           2.7533    0.3940    1.7222 H       1  LIG1        0.0000
     21 H          -1.4856    0.6121    1.0000 H       1  LIG1        0.0000
     22 H          -1.3746   -0.7977    0.1835 H       1  LIG1        0.0000
     23 H          -1.3746   -0.7977    1.8165 H       1  LIG1        0.0000
     24 H           4.2465   -0.8900    0.4526 H       1  LIG1        0.0000
     25 H           5.0436   -1.6559   -1.6733 H       1  LIG1        0.0000
     26 H           5.0075   -1.5539   -4.0699 H       1  LIG1        0.0000
     27 H           4.1447   -0.5928   -6.0829 H       1  LIG1        0.0000
     28 H           2.4939    1.1278   -5.9881 H       1  LIG1        0.0000
     29 H           1.6921    1.9028   -3.8700 H       1  LIG1        0.0000
     30 H           1.7261    1.7968   -1.4645 H       1  LIG1        0.0000
@<TRIPOS>BOND
     1     1     2    1
     2     2     3    2
     3     2     4    1
     4     4     5    1
     5     5     6    1
     6     6     7   ar
     7     7     8   ar
     8     8     9   ar
     9     9    10   ar
    10    10    11   ar
    11    11    12   ar
    12    12    13   ar
    13    13    14   ar
    14    14     9   ar
    15    14    15   ar
    16    15     6   ar
    17     5    16    1
    18    16    17    1
    19    16    18    1
    20    16    19    1
    21     5    20    1
    22     1    21    1
    23     1    22    1
    24     1    23    1
    25     7    24    1
    26     8    25    1
    27    10    26    1
    28    11    27    1
    29    12    28    1
    30    13    29    1
    31    15    30    1
