@<TRIPOS>MOLECULE
*****
 30 31 0 0 0
SMALL
USER_CHARGES

@<TRIPOS>ATOM
      1 C1         -1.0793   -0.3016    1.0000 C.3     1  LIG1        0.0000
      2 C2          0.4360   -0.1824    1.0000 C.2     1  LIG1        0.0000
      3 O3          1.1157   -1.1713    1.0000 O.2     1  LIG1        0.0000
      4 O4          1.0000    1.0000    1.0000 O.3     1  LIG1        0.0000
      5 C5          2.4200    1.0000    1.0000 C.3     1  LIG1        0.0000
      6 C6          2.9266    1.7164   -0.2408 C.3     1  LIG1        0.0000
      7 C7          2.0140    2.2400   -1.1505 C.3     1  LIG1        0.0000
      8 C8          2.4829    2.8937   -2.2850 C.3     1  LIG1        0.0000
      9 C9          3.8514    3.0198   -2.4989 C.3     1  LIG1        0.0000
     10 C10         4.3079    3.6761   -3.6371 C.3     1  LIG1        0.0000
     11 C11         5.6770    3.7978   -3.8489 C.3     1  LIG1        0.0000
     12 C12         6.5840    3.2710   -2.9356 C.3     1  LIG1        0.0000
     13 C13         6.1243    2.6151   -1.7985 C.3     1  LIG1        0.0000
     14 C14         4.7555    2.4912   -1.5823 C.3     1  LIG1        0.0000
     15 C15         4.2975    1.8344   -0.4452 C.3     1  LIG1        0.0000
     16 C16         2.9267    1.7165    2.2411 C.3     1  LIG1        0.0000
     17 F17         1.8922    2.1345    2.9650 F       1  LIG1        0.0000
     18 F18         3.6656    0.8806    2.9650 F       1  LIG1        0.0000
     19 F19         3.6656    2.7615    1.8791 F       1  LIG1        0.0000
     20 H           2.7533    0.0572    1.0000 H       1  LIG1        0.0000
     21 H          -1.4856    0.6121    1.0000 H       1  LIG1        0.0000
     22 H          -1.3746   -0.7977    0.1835 H       1  LIG1        0.0000
     23 H          -1.3746   -0.7977    1.8165 H       1  LIG1        0.0000
     24 H           1.0312    2.1475   -0.9905 H       1  LIG1        0.0000
     25 H           1.8362    3.2729   -2.9468 H       1  LIG1        0.0000
     26 H           3.6588    4.0562   -4.2959 H       1  LIG1        0.0000
     27 H           6.0123    4.2683   -4.6651 H       1  LIG1        0.0000
     28 H           7.5666    3.3637   -3.0965 H       1  LIG1        0.0000
     29 H           6.7739    2.2349   -1.1401 H       1  LIG1        0.0000
     30 H           4.9439    1.4527    0.2155 H       1  LIG1        0.0000
@<TRIPOS>BOND
     1     1     2    1
     2     2     3    2
     3     2     4    1
     4     4     5    1
     5     5     6    1
     6     6     7   ar
     7     7     8   ar
     8     8     9   ar
     9     9    10   ar
    10    10    11   ar
    11    11    12   ar
    12    12    13   ar
    13    13    14   ar
    14    14     9   ar
    15    14    15   ar
    16    15     6   ar
    17     5    16    1
    18    16    17    1
    19    16    18    1
    20    16    19    1
    21     5    20    1
    22     1    21    1
    23     1    22    1
    24     1    23    1
    25     7    24    1
    26     8    25    1
    27    10    26    1
    28    11    27    1
    29    12    28    1
    30    13    29    1
    31    15    30    1
