@<TRIPOS>MOLECULE
*****
 30 31 0 0 0
SMALL
USER_CHARGES

@<TRIPOS>ATOM
      1 C1         -1.0793   -0.3016    1.0000 C.3     1  LIG1        0.0000
      2 C2          0.4360   -0.1824    1.0000 C.2     1  LIG1        0.0000
      3 O3          1.1157   -1.1713    1.0000 O.2     1  LIG1        0.0000
      4 O4          1.0000    1.0000    1.0000 O.3     1  LIG1        0.0000
      5 C5          2.4200    1.0000    1.0000 C.3     1  LIG1        0.0000
      6 C6          2.9266    1.7164   -0.2408 C.3     1  LIG1        0.0000
      7 C7          3.8895    1.1075   -1.0387 C.3     1  LIG1        0.0000
      8 C8          4.3504    1.7680   -2.1725 C.3     1  LIG1        0.0000
      9 C9          3.8472    3.0228   -2.4989 C.3     1  LIG1        0.0000
     10 C10         4.3159    3.6730   -3.6356 C.3     1  LIG1        0.0000
     11 C11         3.8122    4.9288   -3.9572 C.3     1  LIG1        0.0000
     12 C12         2.8502    5.5322   -3.1544 C.3     1  LIG1        0.0000
     13 C13         2.3836    4.8795   -2.0183 C.3     1  LIG1        0.0000
     14 C14         2.8843    3.6230   -1.6927 C.3     1  LIG1        0.0000
     15 C15         2.4174    2.9720   -0.5559 C.3     1  LIG1        0.0000
     16 C16         2.9267    1.7165    2.2411 C.3     1  LIG1        0.0000
     17 F17         1.8922    2.1345    2.9650 F       1  LIG1        0.0000
     18 F18         3.6656    0.8806    2.9650 F       1  LIG1        0.0000
     19 F19         3.6656    2.7615    1.8791 F       1  LIG1        0.0000
     20 H           2.7533    0.0572    1.0000 H       1  LIG1        0.0000
     21 H          -1.4856    0.6121    1.0000 H       1  LIG1        0.0000
     22 H          -1.3746   -0.7977    0.1835 H       1  LIG1        0.0000
     23 H          -1.3746   -0.7977    1.8165 H       1  LIG1        0.0000
     24 H           4.2465    0.2045   -0.7997 H       1  LIG1        0.0000
     25 H           5.0436    1.3407   -2.7529 H       1  LIG1        0.0000
     26 H           5.0075    3.2421   -4.2153 H       1  LIG1        0.0000
     27 H           4.1447    5.4020   -4.7730 H       1  LIG1        0.0000
     28 H           2.4939    6.4354   -3.3940 H       1  LIG1        0.0000
     29 H           1.6921    5.3109   -1.4388 H       1  LIG1        0.0000
     30 H           1.7261    3.4001    0.0262 H       1  LIG1        0.0000
@<TRIPOS>BOND
     1     1     2    1
     2     2     3    2
     3     2     4    1
     4     4     5    1
     5     5     6    1
     6     6     7   ar
     7     7     8   ar
     8     8     9   ar
     9     9    10   ar
    10    10    11   ar
    11    11    12   ar
    12    12    13   ar
    13    13    14   ar
    14    14     9   ar
    15    14    15   ar
    16    15     6   ar
    17     5    16    1
    18    16    17    1
    19    16    18    1
    20    16    19    1
    21     5    20    1
    22     1    21    1
    23     1    22    1
    24     1    23    1
    25     7    24    1
    26     8    25    1
    27    10    26    1
    28    11    27    1
    29    12    28    1
    30    13    29    1
    31    15    30    1
