@<TRIPOS>MOLECULE
*****
 30 31 0 0 0
SMALL
USER_CHARGES

@<TRIPOS>ATOM
      1 C1         -1.0793   -0.3016    1.0000 C.3     1  LIG1        0.0000
      2 C2          0.4360   -0.1824    1.0000 C.2     1  LIG1        0.0000
      3 O3          1.1157   -1.1713    1.0000 O.2     1  LIG1        0.0000
      4 O4          1.0000    1.0000    1.0000 O.3     1  LIG1        0.0000
      5 C5          2.4200    1.0000    1.0000 C.3     1  LIG1        0.0000
      6 C6          2.9266    0.5100   -0.3464 C.3     1  LIG1        0.0000
      7 C7          2.2801    0.9132   -1.5100 C.3     1  LIG1        0.0000
      8 C8          2.7471    0.4609   -2.7394 C.3     1  LIG1        0.0000
      9 C9          3.8506   -0.3838   -2.7960 C.3     1  LIG1        0.0000
     10 C10         4.3083   -0.8290   -4.0316 C.3     1  LIG1        0.0000
     11 C11         5.4104   -1.6756   -4.0839 C.3     1  LIG1        0.0000
     12 C12         6.0515   -2.0757   -2.9163 C.3     1  LIG1        0.0000
     13 C13         5.5913   -1.6289   -1.6822 C.3     1  LIG1        0.0000
     14 C14         4.4892   -0.7815   -1.6250 C.3     1  LIG1        0.0000
     15 C15         4.0298   -0.3363   -0.3902 C.3     1  LIG1        0.0000
     16 C16         2.9267    2.4113    1.2488 C.3     1  LIG1        0.0000
     17 F17         1.8922    3.2346    1.3940 F       1  LIG1        0.0000
     18 F18         3.6656    2.4285    2.3546 F       1  LIG1        0.0000
     19 F19         3.6656    2.8057    0.2157 F       1  LIG1        0.0000
     20 H           2.7533    0.3940    1.7222 H       1  LIG1        0.0000
     21 H          -1.4856    0.6121    1.0000 H       1  LIG1        0.0000
     22 H          -1.3746   -0.7977    0.1835 H       1  LIG1        0.0000
     23 H          -1.3746   -0.7977    1.8165 H       1  LIG1        0.0000
     24 H           1.4880    1.5219   -1.4631 H       1  LIG1        0.0000
     25 H           2.2895    0.7429   -3.5827 H       1  LIG1        0.0000
     26 H           3.8500   -0.5433   -4.8732 H       1  LIG1        0.0000
     27 H           5.7449   -1.9996   -4.9688 H       1  LIG1        0.0000
     28 H           6.8433   -2.6846   -2.9641 H       1  LIG1        0.0000
     29 H           6.0498   -1.9150   -0.8409 H       1  LIG1        0.0000
     30 H           4.4855   -0.6203    0.4534 H       1  LIG1        0.0000
@<TRIPOS>BOND
     1     1     2    1
     2     2     3    2
     3     2     4    1
     4     4     5    1
     5     5     6    1
     6     6     7   ar
     7     7     8   ar
     8     8     9   ar
     9     9    10   ar
    10    10    11   ar
    11    11    12   ar
    12    12    13   ar
    13    13    14   ar
    14    14     9   ar
    15    14    15   ar
    16    15     6   ar
    17     5    16    1
    18    16    17    1
    19    16    18    1
    20    16    19    1
    21     5    20    1
    22     1    21    1
    23     1    22    1
    24     1    23    1
    25     7    24    1
    26     8    25    1
    27    10    26    1
    28    11    27    1
    29    12    28    1
    30    13    29    1
    31    15    30    1
