@<TRIPOS>MOLECULE
*****
 30 31 0 0 0
SMALL
USER_CHARGES

@<TRIPOS>ATOM
      1 C1         -1.0793   -0.3016    1.0000 C.3     1  LIG1        0.0000
      2 C2          0.4360   -0.1824    1.0000 C.2     1  LIG1        0.0000
      3 O3          1.1157   -1.1713    1.0000 O.2     1  LIG1        0.0000
      4 O4          1.0000    1.0000    1.0000 O.3     1  LIG1        0.0000
      5 C5          2.4200    1.0000    1.0000 C.3     1  LIG1        0.0000
      6 C6          2.9266    2.4110    0.7512 C.3     1  LIG1        0.0000
      7 C7          2.9556    3.3237    1.8003 C.3     1  LIG1        0.0000
      8 C8          3.4190    4.6141    1.5669 C.3     1  LIG1        0.0000
      9 C9          3.8489    4.9791    0.2955 C.3     1  LIG1        0.0000
     10 C10         4.3106    6.2723    0.0749 C.3     1  LIG1        0.0000
     11 C11         4.7371    6.6343   -1.1984 C.3     1  LIG1        0.0000
     12 C12         4.7044    5.7168   -2.2431 C.3     1  LIG1        0.0000
     13 C13         4.2420    4.4243   -2.0193 C.3     1  LIG1        0.0000
     14 C14         3.8147    4.0576   -0.7471 C.3     1  LIG1        0.0000
     15 C15         3.3518    2.7651   -0.5251 C.3     1  LIG1        0.0000
     16 C16         2.9267    0.5099    2.3466 C.3     1  LIG1        0.0000
     17 F17         1.8922    0.2239    3.1322 F       1  LIG1        0.0000
     18 F18         3.6656   -0.5821    2.1716 F       1  LIG1        0.0000
     19 F19         3.6656    1.4588    2.9144 F       1  LIG1        0.0000
     20 H           2.7533    0.3940    0.2778 H       1  LIG1        0.0000
     21 H          -1.4856    0.6121    1.0000 H       1  LIG1        0.0000
     22 H          -1.3746   -0.7977    0.1835 H       1  LIG1        0.0000
     23 H          -1.3746   -0.7977    1.8165 H       1  LIG1        0.0000
     24 H           2.6466    3.0551    2.7126 H       1  LIG1        0.0000
     25 H           3.4432    5.2793    2.3131 H       1  LIG1        0.0000
     26 H           4.3357    6.9347    0.8236 H       1  LIG1        0.0000
     27 H           5.0702    7.5625   -1.3643 H       1  LIG1        0.0000
     28 H           5.0133    5.9865   -3.1552 H       1  LIG1        0.0000
     29 H           4.2169    3.7624   -2.7685 H       1  LIG1        0.0000
     30 H           3.3250    2.1003   -1.2717 H       1  LIG1        0.0000
@<TRIPOS>BOND
     1     1     2    1
     2     2     3    2
     3     2     4    1
     4     4     5    1
     5     5     6    1
     6     6     7   ar
     7     7     8   ar
     8     8     9   ar
     9     9    10   ar
    10    10    11   ar
    11    11    12   ar
    12    12    13   ar
    13    13    14   ar
    14    14     9   ar
    15    14    15   ar
    16    15     6   ar
    17     5    16    1
    18    16    17    1
    19    16    18    1
    20    16    19    1
    21     5    20    1
    22     1    21    1
    23     1    22    1
    24     1    23    1
    25     7    24    1
    26     8    25    1
    27    10    26    1
    28    11    27    1
    29    12    28    1
    30    13    29    1
    31    15    30    1
