@<TRIPOS>MOLECULE
*****
 30 31 0 0 0
SMALL
USER_CHARGES

@<TRIPOS>ATOM
      1 C1         -1.0793   -0.3016    1.0000 C.3     1  LIG1        0.0000
      2 C2          0.4360   -0.1824    1.0000 C.2     1  LIG1        0.0000
      3 O3          1.1157   -1.1713    1.0000 O.2     1  LIG1        0.0000
      4 O4          1.0000    1.0000    1.0000 O.3     1  LIG1        0.0000
      5 C5          2.4200    1.0000    1.0000 C.3     1  LIG1        0.0000
      6 C6          2.9266    1.7164   -0.2408 C.3     1  LIG1        0.0000
      7 C7          4.2961    1.8389   -0.4504 C.3     1  LIG1        0.0000
      8 C8          4.7543    2.4965   -1.5870 C.3     1  LIG1        0.0000
      9 C9          3.8461    3.0212   -2.5003 C.3     1  LIG1        0.0000
     10 C10         4.3167    3.6762   -3.6334 C.3     1  LIG1        0.0000
     11 C11         3.4054    4.2019   -4.5429 C.3     1  LIG1        0.0000
     12 C12         2.0373    4.0766   -4.3267 C.3     1  LIG1        0.0000
     13 C13         1.5697    3.4211   -3.1925 C.3     1  LIG1        0.0000
     14 C14         2.4777    2.8934   -2.2800 C.3     1  LIG1        0.0000
     15 C15         2.0086    2.2390   -1.1460 C.3     1  LIG1        0.0000
     16 C16         2.9267    1.7165    2.2411 C.3     1  LIG1        0.0000
     17 F17         1.8922    2.1345    2.9650 F       1  LIG1        0.0000
     18 F18         3.6656    0.8806    2.9650 F       1  LIG1        0.0000
     19 F19         3.6656    2.7615    1.8791 F       1  LIG1        0.0000
     20 H           2.7533    0.0572    1.0000 H       1  LIG1        0.0000
     21 H          -1.4856    0.6121    1.0000 H       1  LIG1        0.0000
     22 H          -1.3746   -0.7977    0.1835 H       1  LIG1        0.0000
     23 H          -1.3746   -0.7977    1.8165 H       1  LIG1        0.0000
     24 H           4.9443    1.4583    0.2091 H       1  LIG1        0.0000
     25 H           5.7367    2.5920   -1.7475 H       1  LIG1        0.0000
     26 H           5.2997    3.7682   -3.7923 H       1  LIG1        0.0000
     27 H           3.7368    4.6742   -5.3597 H       1  LIG1        0.0000
     28 H           1.3898    4.4578   -4.9865 H       1  LIG1        0.0000
     29 H           0.5866    3.3297   -3.0340 H       1  LIG1        0.0000
     30 H           1.0263    2.1456   -0.9838 H       1  LIG1        0.0000
@<TRIPOS>BOND
     1     1     2    1
     2     2     3    2
     3     2     4    1
     4     4     5    1
     5     5     6    1
     6     6     7   ar
     7     7     8   ar
     8     8     9   ar
     9     9    10   ar
    10    10    11   ar
    11    11    12   ar
    12    12    13   ar
    13    13    14   ar
    14    14     9   ar
    15    14    15   ar
    16    15     6   ar
    17     5    16    1
    18    16    17    1
    19    16    18    1
    20    16    19    1
    21     5    20    1
    22     1    21    1
    23     1    22    1
    24     1    23    1
    25     7    24    1
    26     8    25    1
    27    10    26    1
    28    11    27    1
    29    12    28    1
    30    13    29    1
    31    15    30    1
