@<TRIPOS>MOLECULE
*****
 30 31 0 0 0
SMALL
USER_CHARGES

@<TRIPOS>ATOM
      1 C1         -1.0793   -0.3016    1.0000 C.3     1  LIG1        0.0000
      2 C2          0.4360   -0.1824    1.0000 C.2     1  LIG1        0.0000
      3 O3          1.1157   -1.1713    1.0000 O.2     1  LIG1        0.0000
      4 O4          1.0000    1.0000    1.0000 O.3     1  LIG1        0.0000
      5 C5          2.4200    1.0000    1.0000 C.3     1  LIG1        0.0000
      6 C6          2.9266    2.4110    0.7512 C.3     1  LIG1        0.0000
      7 C7          4.2961    2.6503    0.7104 C.3     1  LIG1        0.0000
      8 C8          4.7543    3.9437    0.4835 C.3     1  LIG1        0.0000
      9 C9          3.8461    4.9806    0.2984 C.3     1  LIG1        0.0000
     10 C10         4.3167    6.2696    0.0718 C.3     1  LIG1        0.0000
     11 C11         3.4054    7.3043   -0.1101 C.3     1  LIG1        0.0000
     12 C12         2.0373    7.0580   -0.0671 C.3     1  LIG1        0.0000
     13 C13         1.5697    5.7679    0.1598 C.3     1  LIG1        0.0000
     14 C14         2.4777    4.7296    0.3421 C.3     1  LIG1        0.0000
     15 C15         2.0086    3.4404    0.5697 C.3     1  LIG1        0.0000
     16 C16         2.9267    0.5099    2.3466 C.3     1  LIG1        0.0000
     17 F17         1.8922    0.2239    3.1322 F       1  LIG1        0.0000
     18 F18         3.6656   -0.5821    2.1716 F       1  LIG1        0.0000
     19 F19         3.6656    1.4588    2.9144 F       1  LIG1        0.0000
     20 H           2.7533    0.3940    0.2778 H       1  LIG1        0.0000
     21 H          -1.4856    0.6121    1.0000 H       1  LIG1        0.0000
     22 H          -1.3746   -0.7977    0.1835 H       1  LIG1        0.0000
     23 H          -1.3746   -0.7977    1.8165 H       1  LIG1        0.0000
     24 H           4.9443    1.9005    0.8427 H       1  LIG1        0.0000
     25 H           5.7367    4.1281    0.4535 H       1  LIG1        0.0000
     26 H           5.2997    6.4505    0.0401 H       1  LIG1        0.0000
     27 H           3.7368    8.2335   -0.2734 H       1  LIG1        0.0000
     28 H           1.3898    7.8085   -0.1993 H       1  LIG1        0.0000
     29 H           0.5866    5.5877    0.1917 H       1  LIG1        0.0000
     30 H           1.0263    3.2560    0.6024 H       1  LIG1        0.0000
@<TRIPOS>BOND
     1     1     2    1
     2     2     3    2
     3     2     4    1
     4     4     5    1
     5     5     6    1
     6     6     7   ar
     7     7     8   ar
     8     8     9   ar
     9     9    10   ar
    10    10    11   ar
    11    11    12   ar
    12    12    13   ar
    13    13    14   ar
    14    14     9   ar
    15    14    15   ar
    16    15     6   ar
    17     5    16    1
    18    16    17    1
    19    16    18    1
    20    16    19    1
    21     5    20    1
    22     1    21    1
    23     1    22    1
    24     1    23    1
    25     7    24    1
    26     8    25    1
    27    10    26    1
    28    11    27    1
    29    12    28    1
    30    13    29    1
    31    15    30    1
