@<TRIPOS>MOLECULE

  20   21
SMALL
USER_CHARGES
@<TRIPOS>ATOM
   1 C1           1.0000     1.0000     1.0000 C.3          1    LIG   0.0000
   2 N2           1.8487     1.8487     1.8487 N.am         1    LIG   0.0000
   3 C3           1.4005     3.1387     2.1556 C.2          1    LIG   0.0000
   4 O4           0.3585     3.5806     1.6930 O.2          1    LIG   0.0000
   5 C5           2.2600     3.9757     3.0900 C.3          1    LIG   0.0000
   6 O6           3.0194     3.1492     3.9654 O.3          1    LIG   0.0000
   7 C7           3.6181     2.0531     3.4466 C.ar         1    LIG   0.0000
   8 C8           4.8134     1.5809     3.9746 C.ar         1    LIG   0.0000
   9 C9           5.4550     0.4719     3.4293 C.ar         1    LIG   0.0000
  10 Br10         7.1456    -0.1801     4.1792 Br           1    LIG   0.0000
  11 C11          4.8642    -0.1575     2.3365 C.ar         1    LIG   0.0000
  12 N12          3.7020     0.3120     1.8568 N.ar         1    LIG   0.0000
  13 C13          3.0608     1.3787     2.3656 C.ar         1    LIG   0.0000
  14 H            0.1825     1.5092     0.7309 H            1    LIG   0.0000
  15 H            1.5092     0.7309     0.1825 H            1    LIG   0.0000
  16 H            0.7309     0.1825     1.5092 H            1    LIG   0.0000
  17 H            2.8847     4.5355     2.5456 H            1    LIG   0.0000
  18 H            1.6677     4.5701     3.6339 H            1    LIG   0.0000
  19 H            5.2204     2.0461     4.7607 H            1    LIG   0.0000
  20 H            5.3015    -0.9512     1.9136 H            1    LIG   0.0000
@<TRIPOS>BOND
   1        1        2 1
   2        2        3 am
   3        3        4 2
   4        3        5 1
   5        5        6 1
   6        6        7 1
   7        7        8 ar
   8        8        9 ar
   9        9       10 1
  10        9       11 ar
  11       11       12 ar
  12       12       13 ar
  13       13        7 ar
  14       13        2 1
  15        1       14 1
  16        1       15 1
  17        1       16 1
  18        5       17 1
  19        5       18 1
  20        8       19 1
  21       11       20 1

@<TRIPOS>MOLECULE

  20   21
SMALL
USER_CHARGES
@<TRIPOS>ATOM
   1 C1           1.0000     1.0000     1.0000 C.3          1    LIG   0.0000
   2 N2           1.8485     1.8485     1.8485 N.am         1    LIG   0.0000
   3 C3           1.2395     2.9083     2.5276 C.2          1    LIG   0.0000
   4 O4           0.0376     3.0884     2.4496 O.2          1    LIG   0.0000
   5 C5           2.1252     3.8238     3.3575 C.3          1    LIG   0.0000
   6 O6           3.4685     3.7905     2.8933 O.3          1    LIG   0.0000
   7 C7           4.0223     2.6349     2.4620 C.ar         1    LIG   0.0000
   8 C8           5.3948     2.4237     2.5228 C.ar         1    LIG   0.0000
   9 C9           5.9654     1.2284     2.0995 C.ar         1    LIG   0.0000
  10 Br10         7.9055     0.9501     2.1641 Br           1    LIG   0.0000
  11 C11          5.1152     0.2371     1.6220 C.ar         1    LIG   0.0000
  12 N12          3.7928     0.4573     1.5575 N.ar         1    LIG   0.0000
  13 C13          3.2297     1.6188     1.9470 C.ar         1    LIG   0.0000
  14 H            0.0522     1.3138     1.0567 H            1    LIG   0.0000
  15 H            1.3138     1.0567     0.0522 H            1    LIG   0.0000
  16 H            1.0567     0.0522     1.3138 H            1    LIG   0.0000
  17 H            1.7798     4.7600     3.2925 H            1    LIG   0.0000
  18 H            2.1013     3.5252     4.3116 H            1    LIG   0.0000
  19 H            5.9853     3.1478     2.8791 H            1    LIG   0.0000
  20 H            5.4897    -0.6416     1.3261 H            1    LIG   0.0000
@<TRIPOS>BOND
   1        1        2 1
   2        2        3 am
   3        3        4 2
   4        3        5 1
   5        5        6 1
   6        6        7 1
   7        7        8 ar
   8        8        9 ar
   9        9       10 1
  10        9       11 ar
  11       11       12 ar
  12       12       13 ar
  13       13        7 ar
  14       13        2 1
  15        1       14 1
  16        1       15 1
  17        1       16 1
  18        5       17 1
  19        5       18 1
  20        8       19 1
  21       11       20 1

