@<TRIPOS>MOLECULE
*****
 20 21 0 0 0
SMALL
USER_CHARGES

@<TRIPOS>ATOM
      1 C1          1.0000    1.0000    1.0000 C.3     1  LIG1        0.0000
      2 N2          1.8485    1.8485    1.8485 N.am    1  LIG1        0.0000
      3 C3          1.2395    2.9083    2.5276 C.2     1  LIG1        0.0000
      4 O4          0.0376    3.0884    2.4496 O.2     1  LIG1        0.0000
      5 C5          2.1252    3.8238    3.3575 C.3     1  LIG1        0.0000
      6 O6          3.4685    3.7905    2.8933 O.2     1  LIG1        0.0000
      7 C7          4.0223    2.6349    2.4620 C.3     1  LIG1        0.0000
      8 C8          5.3948    2.4237    2.5228 C.3     1  LIG1        0.0000
      9 C9          5.9654    1.2284    2.0995 C.3     1  LIG1        0.0000
     10 Br10        7.9055    0.9501    2.1641 Br      1  LIG1        0.0000
     11 C11         5.1152    0.2371    1.6220 C.3     1  LIG1        0.0000
     12 N12         3.7928    0.4573    1.5575 N.pl3   1  LIG1        0.0000
     13 C13         3.2297    1.6188    1.9470 C.3     1  LIG1        0.0000
     14 H           0.0522    1.3138    1.0567 H       1  LIG1        0.0000
     15 H           1.3138    1.0567    0.0522 H       1  LIG1        0.0000
     16 H           1.0567    0.0522    1.3138 H       1  LIG1        0.0000
     17 H           1.7798    4.7600    3.2925 H       1  LIG1        0.0000
     18 H           2.1013    3.5252    4.3116 H       1  LIG1        0.0000
     19 H           5.9853    3.1478    2.8791 H       1  LIG1        0.0000
     20 H           5.4897   -0.6416    1.3261 H       1  LIG1        0.0000
@<TRIPOS>BOND
     1     1     2    1
     2     2     3   am
     3     3     4    2
     4     3     5    1
     5     5     6    1
     6     6     7    1
     7     7     8   ar
     8     8     9   ar
     9     9    10    1
    10     9    11   ar
    11    11    12   ar
    12    12    13   ar
    13    13     7   ar
    14    13     2    1
    15     1    14    1
    16     1    15    1
    17     1    16    1
    18     5    17    1
    19     5    18    1
    20     8    19    1
    21    11    20    1
