@<TRIPOS>MOLECULE

  15   16
SMALL
USER_CHARGES
@<TRIPOS>ATOM
   1 C1           0.0172     1.4010     0.0040 C.2          1    LIG   0.0000
   2 C2           0.0617     0.0381    -0.0048 C.2          1    LIG   0.0000
   3 N3           1.3776    -0.3105    -0.0159 N.pl3        1    LIG   0.0000
   4 C4           1.8791    -1.6161    -0.0318 C.2          1    LIG   0.0000
   5 N5           1.2323    -2.7581    -0.0420 N.2          1    LIG   0.0000
   6 C6           2.0287    -3.8735    -0.0618 C.2          1    LIG   0.0000
   7 C7           3.3785    -3.6653    -0.0641 C.2          1    LIG   0.0000
   8 S8           3.5387    -1.9720    -0.0495 S.3          1    LIG   0.0000
   9 C9           2.1259     0.8299    -0.0124 C.2          1    LIG   0.0000
  10 N10          1.3036     1.8554    -0.0011 N.2          1    LIG   0.0000
  11 H           -0.8085     1.9650     0.0128 H            1    LIG   0.0000
  12 H           -0.7208    -0.5846    -0.0035 H            1    LIG   0.0000
  13 H            1.6403    -4.7949    -0.0740 H            1    LIG   0.0000
  14 H            4.1060    -4.3512    -0.0725 H            1    LIG   0.0000
  15 H            3.1247     0.8775    -0.0175 H            1    LIG   0.0000
@<TRIPOS>BOND
   1        1        2 2
   2        2        3 1
   3        3        4 1
   4        4        5 2
   5        5        6 1
   6        6        7 2
   7        7        8 1
   8        8        4 1
   9        3        9 1
  10        9       10 2
  11       10        1 1
  12        1       11 1
  13        2       12 1
  14        6       13 1
  15        7       14 1
  16        9       15 1

@<TRIPOS>MOLECULE

  15   16
SMALL
USER_CHARGES
@<TRIPOS>ATOM
   1 C1           0.0172     1.4010     0.0040 C.2          1    LIG   0.0000
   2 C2           0.0617     0.0381    -0.0048 C.2          1    LIG   0.0000
   3 N3           1.3776    -0.3105    -0.0159 N.pl3        1    LIG   0.0000
   4 C4           1.8791    -1.6161    -0.0318 C.2          1    LIG   0.0000
   5 N5           1.3573    -2.7039    -0.5485 N.2          1    LIG   0.0000
   6 C6           2.1136    -3.8368    -0.3959 C.2          1    LIG   0.0000
   7 C7           3.2987    -3.6999     0.2690 C.2          1    LIG   0.0000
   8 S8           3.3671    -2.0466     0.6623 S.3          1    LIG   0.0000
   9 C9           2.1259     0.8299    -0.0124 C.2          1    LIG   0.0000
  10 N10          1.3036     1.8554    -0.0011 N.2          1    LIG   0.0000
  11 H           -0.8085     1.9650     0.0128 H            1    LIG   0.0000
  12 H           -0.7208    -0.5846    -0.0035 H            1    LIG   0.0000
  13 H            1.8123    -4.7206    -0.7540 H            1    LIG   0.0000
  14 H            3.9721    -4.4094     0.4770 H            1    LIG   0.0000
  15 H            3.1247     0.8775    -0.0175 H            1    LIG   0.0000
@<TRIPOS>BOND
   1        1        2 2
   2        2        3 1
   3        3        4 1
   4        4        5 2
   5        5        6 1
   6        6        7 2
   7        7        8 1
   8        8        4 1
   9        3        9 1
  10        9       10 2
  11       10        1 1
  12        1       11 1
  13        2       12 1
  14        6       13 1
  15        7       14 1
  16        9       15 1

@<TRIPOS>MOLECULE

  15   16
SMALL
USER_CHARGES
@<TRIPOS>ATOM
   1 C1           0.0172     1.4010     0.0040 C.2          1    LIG   0.0000
   2 C2           0.0617     0.0381    -0.0048 C.2          1    LIG   0.0000
   3 N3           1.3776    -0.3105    -0.0159 N.pl3        1    LIG   0.0000
   4 C4           1.8791    -1.6161    -0.0318 C.2          1    LIG   0.0000
   5 N5           1.3608    -2.7149     0.4646 N.2          1    LIG   0.0000
   6 C6           2.1113    -3.8459     0.2737 C.2          1    LIG   0.0000
   7 C7           3.2919    -3.6945    -0.3960 C.2          1    LIG   0.0000
   8 S8           3.3546    -2.0340    -0.7593 S.3          1    LIG   0.0000
   9 C9           2.1259     0.8299    -0.0124 C.2          1    LIG   0.0000
  10 N10          1.3036     1.8554    -0.0011 N.2          1    LIG   0.0000
  11 H           -0.8085     1.9650     0.0128 H            1    LIG   0.0000
  12 H           -0.7208    -0.5846    -0.0035 H            1    LIG   0.0000
  13 H            1.8091    -4.7384     0.6085 H            1    LIG   0.0000
  14 H            3.9652    -4.3986    -0.6212 H            1    LIG   0.0000
  15 H            3.1247     0.8775    -0.0175 H            1    LIG   0.0000
@<TRIPOS>BOND
   1        1        2 2
   2        2        3 1
   3        3        4 1
   4        4        5 2
   5        5        6 1
   6        6        7 2
   7        7        8 1
   8        8        4 1
   9        3        9 1
  10        9       10 2
  11       10        1 1
  12        1       11 1
  13        2       12 1
  14        6       13 1
  15        7       14 1
  16        9       15 1

@<TRIPOS>MOLECULE

  15   16
SMALL
USER_CHARGES
@<TRIPOS>ATOM
   1 C1           0.0172     1.4010     0.0040 C.2          1    LIG   0.0000
   2 C2           0.0617     0.0381    -0.0048 C.2          1    LIG   0.0000
   3 N3           1.3776    -0.3105    -0.0159 N.pl3        1    LIG   0.0000
   4 C4           1.8791    -1.6161    -0.0318 C.2          1    LIG   0.0000
   5 N5           1.7022    -2.5669    -0.9191 N.2          1    LIG   0.0000
   6 C6           2.3433    -3.7457    -0.6390 C.2          1    LIG   0.0000
   7 C7           3.0740    -3.7892     0.5140 C.2          1    LIG   0.0000
   8 S8           2.8859    -2.2377     1.1852 S.3          1    LIG   0.0000
   9 C9           2.1259     0.8299    -0.0124 C.2          1    LIG   0.0000
  10 N10          1.3036     1.8554    -0.0011 N.2          1    LIG   0.0000
  11 H           -0.8085     1.9650     0.0128 H            1    LIG   0.0000
  12 H           -0.7208    -0.5846    -0.0035 H            1    LIG   0.0000
  13 H            2.2791    -4.5353    -1.2493 H            1    LIG   0.0000
  14 H            3.5993    -4.5574     0.8799 H            1    LIG   0.0000
  15 H            3.1247     0.8775    -0.0175 H            1    LIG   0.0000
@<TRIPOS>BOND
   1        1        2 2
   2        2        3 1
   3        3        4 1
   4        4        5 2
   5        5        6 1
   6        6        7 2
   7        7        8 1
   8        8        4 1
   9        3        9 1
  10        9       10 2
  11       10        1 1
  12        1       11 1
  13        2       12 1
  14        6       13 1
  15        7       14 1
  16        9       15 1

@<TRIPOS>MOLECULE

  15   16
SMALL
USER_CHARGES
@<TRIPOS>ATOM
   1 C1           0.0172     1.4010     0.0040 C.2          1    LIG   0.0000
   2 C2           0.0617     0.0381    -0.0048 C.2          1    LIG   0.0000
   3 N3           1.3776    -0.3105    -0.0159 N.pl3        1    LIG   0.0000
   4 C4           1.8791    -1.6161    -0.0318 C.2          1    LIG   0.0000
   5 N5           1.7082    -2.5860     0.8357 N.2          1    LIG   0.0000
   6 C6           2.3392    -3.7613     0.5208 C.2          1    LIG   0.0000
   7 C7           3.0621    -3.7798    -0.6378 C.2          1    LIG   0.0000
   8 S8           2.8643    -2.2160    -1.2770 S.3          1    LIG   0.0000
   9 C9           2.1259     0.8299    -0.0124 C.2          1    LIG   0.0000
  10 N10          1.3036     1.8554    -0.0011 N.2          1    LIG   0.0000
  11 H           -0.8085     1.9650     0.0128 H            1    LIG   0.0000
  12 H           -0.7208    -0.5846    -0.0035 H            1    LIG   0.0000
  13 H            2.2735    -4.5662     1.1107 H            1    LIG   0.0000
  14 H            3.5875    -4.5388    -1.0223 H            1    LIG   0.0000
  15 H            3.1247     0.8775    -0.0175 H            1    LIG   0.0000
@<TRIPOS>BOND
   1        1        2 2
   2        2        3 1
   3        3        4 1
   4        4        5 2
   5        5        6 1
   6        6        7 2
   7        7        8 1
   8        8        4 1
   9        3        9 1
  10        9       10 2
  11       10        1 1
  12        1       11 1
  13        2       12 1
  14        6       13 1
  15        7       14 1
  16        9       15 1

@<TRIPOS>MOLECULE

  15   16
SMALL
USER_CHARGES
@<TRIPOS>ATOM
   1 C1           0.0172     1.4010     0.0040 C.2          1    LIG   0.0000
   2 C2           0.0617     0.0381    -0.0048 C.2          1    LIG   0.0000
   3 N3           1.3776    -0.3105    -0.0159 N.pl3        1    LIG   0.0000
   4 C4           1.8791    -1.6161    -0.0318 C.2          1    LIG   0.0000
   5 N5           3.1240    -2.0316    -0.0406 N.2          1    LIG   0.0000
   6 C6           3.2791    -3.3934    -0.0510 C.2          1    LIG   0.0000
   7 C7           2.1369    -4.1422    -0.0553 C.2          1    LIG   0.0000
   8 S8           0.8844    -2.9916    -0.0353 S.3          1    LIG   0.0000
   9 C9           2.1259     0.8299    -0.0124 C.2          1    LIG   0.0000
  10 N10          1.3036     1.8554    -0.0011 N.2          1    LIG   0.0000
  11 H           -0.8085     1.9650     0.0128 H            1    LIG   0.0000
  12 H           -0.7208    -0.5846    -0.0035 H            1    LIG   0.0000
  13 H            4.1844    -3.8180    -0.0552 H            1    LIG   0.0000
  14 H            2.0555    -5.1388    -0.0674 H            1    LIG   0.0000
  15 H            3.1247     0.8775    -0.0175 H            1    LIG   0.0000
@<TRIPOS>BOND
   1        1        2 2
   2        2        3 1
   3        3        4 1
   4        4        5 2
   5        5        6 1
   6        6        7 2
   7        7        8 1
   8        8        4 1
   9        3        9 1
  10        9       10 2
  11       10        1 1
  12        1       11 1
  13        2       12 1
  14        6       13 1
  15        7       14 1
  16        9       15 1

@<TRIPOS>MOLECULE

  15   16
SMALL
USER_CHARGES
@<TRIPOS>ATOM
   1 C1           0.0172     1.4010     0.0040 C.2          1    LIG   0.0000
   2 C2           0.0617     0.0381    -0.0048 C.2          1    LIG   0.0000
   3 N3           1.3776    -0.3105    -0.0159 N.pl3        1    LIG   0.0000
   4 C4           1.8791    -1.6161    -0.0318 C.2          1    LIG   0.0000
   5 N5           2.9990    -2.0858     0.4659 N.2          1    LIG   0.0000
   6 C6           3.1941    -3.4301     0.2831 C.2          1    LIG   0.0000
   7 C7           2.2166    -4.1075    -0.3883 C.2          1    LIG   0.0000
   8 S8           1.0560    -2.9170    -0.7470 S.3          1    LIG   0.0000
   9 C9           2.1259     0.8299    -0.0124 C.2          1    LIG   0.0000
  10 N10          1.3036     1.8554    -0.0011 N.2          1    LIG   0.0000
  11 H           -0.8085     1.9650     0.0128 H            1    LIG   0.0000
  12 H           -0.7208    -0.5846    -0.0035 H            1    LIG   0.0000
  13 H            4.0124    -3.8924     0.6248 H            1    LIG   0.0000
  14 H            2.1895    -5.0807    -0.6168 H            1    LIG   0.0000
  15 H            3.1247     0.8775    -0.0175 H            1    LIG   0.0000
@<TRIPOS>BOND
   1        1        2 2
   2        2        3 1
   3        3        4 1
   4        4        5 2
   5        5        6 1
   6        6        7 2
   7        7        8 1
   8        8        4 1
   9        3        9 1
  10        9       10 2
  11       10        1 1
  12        1       11 1
  13        2       12 1
  14        6       13 1
  15        7       14 1
  16        9       15 1

@<TRIPOS>MOLECULE

  15   16
SMALL
USER_CHARGES
@<TRIPOS>ATOM
   1 C1           0.0172     1.4010     0.0040 C.2          1    LIG   0.0000
   2 C2           0.0617     0.0381    -0.0048 C.2          1    LIG   0.0000
   3 N3           1.3776    -0.3105    -0.0159 N.pl3        1    LIG   0.0000
   4 C4           1.8791    -1.6161    -0.0318 C.2          1    LIG   0.0000
   5 N5           2.9955    -2.0748    -0.5473 N.2          1    LIG   0.0000
   6 C6           3.1965    -3.4211    -0.3865 C.2          1    LIG   0.0000
   7 C7           2.2235    -4.1130     0.2766 C.2          1    LIG   0.0000
   8 S8           1.0684    -2.9295     0.6746 S.3          1    LIG   0.0000
   9 C9           2.1259     0.8299    -0.0124 C.2          1    LIG   0.0000
  10 N10          1.3036     1.8554    -0.0011 N.2          1    LIG   0.0000
  11 H           -0.8085     1.9650     0.0128 H            1    LIG   0.0000
  12 H           -0.7208    -0.5846    -0.0035 H            1    LIG   0.0000
  13 H            4.0156    -3.8746    -0.7377 H            1    LIG   0.0000
  14 H            2.1963    -5.0914     0.4814 H            1    LIG   0.0000
  15 H            3.1247     0.8775    -0.0175 H            1    LIG   0.0000
@<TRIPOS>BOND
   1        1        2 2
   2        2        3 1
   3        3        4 1
   4        4        5 2
   5        5        6 1
   6        6        7 2
   7        7        8 1
   8        8        4 1
   9        3        9 1
  10        9       10 2
  11       10        1 1
  12        1       11 1
  13        2       12 1
  14        6       13 1
  15        7       14 1
  16        9       15 1

@<TRIPOS>MOLECULE

  15   16
SMALL
USER_CHARGES
@<TRIPOS>ATOM
   1 C1           0.0172     1.4010     0.0040 C.2          1    LIG   0.0000
   2 C2           0.0617     0.0381    -0.0048 C.2          1    LIG   0.0000
   3 N3           1.3776    -0.3105    -0.0159 N.pl3        1    LIG   0.0000
   4 C4           1.8791    -1.6161    -0.0318 C.2          1    LIG   0.0000
   5 N5           2.6541    -2.2228     0.8365 N.2          1    LIG   0.0000
   6 C6           2.9644    -3.5213     0.5263 C.2          1    LIG   0.0000
   7 C7           2.4413    -4.0182    -0.6334 C.2          1    LIG   0.0000
   8 S8           1.5372    -2.7258    -1.2699 S.3          1    LIG   0.0000
   9 C9           2.1259     0.8299    -0.0124 C.2          1    LIG   0.0000
  10 N10          1.3036     1.8554    -0.0011 N.2          1    LIG   0.0000
  11 H           -0.8085     1.9650     0.0128 H            1    LIG   0.0000
  12 H           -0.7208    -0.5846    -0.0035 H            1    LIG   0.0000
  13 H            3.5456    -4.0777     1.1201 H            1    LIG   0.0000
  14 H            2.5622    -4.9326    -1.0197 H            1    LIG   0.0000
  15 H            3.1247     0.8775    -0.0175 H            1    LIG   0.0000
@<TRIPOS>BOND
   1        1        2 2
   2        2        3 1
   3        3        4 1
   4        4        5 2
   5        5        6 1
   6        6        7 2
   7        7        8 1
   8        8        4 1
   9        3        9 1
  10        9       10 2
  11       10        1 1
  12        1       11 1
  13        2       12 1
  14        6       13 1
  15        7       14 1
  16        9       15 1

@<TRIPOS>MOLECULE

  15   16
SMALL
USER_CHARGES
@<TRIPOS>ATOM
   1 C1           0.0172     1.4010     0.0040 C.2          1    LIG   0.0000
   2 C2           0.0617     0.0381    -0.0048 C.2          1    LIG   0.0000
   3 N3           1.3776    -0.3105    -0.0159 N.pl3        1    LIG   0.0000
   4 C4           1.8791    -1.6161    -0.0318 C.2          1    LIG   0.0000
   5 N5           2.6481    -2.2037    -0.9184 N.2          1    LIG   0.0000
   6 C6           2.9685    -3.5056    -0.6336 C.2          1    LIG   0.0000
   7 C7           2.4532    -4.0277     0.5184 C.2          1    LIG   0.0000
   8 S8           1.5588    -2.7475     1.1923 S.3          1    LIG   0.0000
   9 C9           2.1259     0.8299    -0.0124 C.2          1    LIG   0.0000
  10 N10          1.3036     1.8554    -0.0011 N.2          1    LIG   0.0000
  11 H           -0.8085     1.9650     0.0128 H            1    LIG   0.0000
  12 H           -0.7208    -0.5846    -0.0035 H            1    LIG   0.0000
  13 H            3.5512    -4.0468    -1.2399 H            1    LIG   0.0000
  14 H            2.5741    -4.9512     0.8824 H            1    LIG   0.0000
  15 H            3.1247     0.8775    -0.0175 H            1    LIG   0.0000
@<TRIPOS>BOND
   1        1        2 2
   2        2        3 1
   3        3        4 1
   4        4        5 2
   5        5        6 1
   6        6        7 2
   7        7        8 1
   8        8        4 1
   9        3        9 1
  10        9       10 2
  11       10        1 1
  12        1       11 1
  13        2       12 1
  14        6       13 1
  15        7       14 1
  16        9       15 1

