@<TRIPOS>MOLECULE
*****
 15 16 0 0 0
SMALL
USER_CHARGES

@<TRIPOS>ATOM
      1 C1          0.0172    1.4010    0.0040 C.2     1  LIG1        0.0000
      2 C2          0.0617    0.0381   -0.0048 C.2     1  LIG1        0.0000
      3 N3          1.3776   -0.3105   -0.0159 N.pl3   1  LIG1        0.0000
      4 C4          1.8791   -1.6161   -0.0318 C.2     1  LIG1        0.0000
      5 N5          2.9990   -2.0858    0.4659 N.2     1  LIG1        0.0000
      6 C6          3.1941   -3.4301    0.2831 C.2     1  LIG1        0.0000
      7 C7          2.2166   -4.1075   -0.3883 C.2     1  LIG1        0.0000
      8 S8          1.0560   -2.9170   -0.7470 S.3     1  LIG1        0.0000
      9 C9          2.1259    0.8299   -0.0124 C.2     1  LIG1        0.0000
     10 N10         1.3036    1.8554   -0.0011 N.2     1  LIG1        0.0000
     11 H          -0.8085    1.9650    0.0128 H       1  LIG1        0.0000
     12 H          -0.7208   -0.5846   -0.0035 H       1  LIG1        0.0000
     13 H           4.0124   -3.8924    0.6248 H       1  LIG1        0.0000
     14 H           2.1895   -5.0807   -0.6168 H       1  LIG1        0.0000
     15 H           3.1247    0.8775   -0.0175 H       1  LIG1        0.0000
@<TRIPOS>BOND
     1     1     2    2
     2     2     3    1
     3     3     4    1
     4     4     5    2
     5     5     6    1
     6     6     7    2
     7     7     8    1
     8     8     4    1
     9     3     9    1
    10     9    10    2
    11    10     1    1
    12     1    11    1
    13     2    12    1
    14     6    13    1
    15     7    14    1
    16     9    15    1
