@<TRIPOS>MOLECULE
*****
 36 39 0 0 0
SMALL
USER_CHARGES

@<TRIPOS>ATOM
      1 C1          0.4021   -0.3429    1.0000 C.3     1  LIG1        0.0000
      2 N2          1.0000    1.0000    1.0000 N.2     1  LIG1        0.0000
      3 C3          2.2703    1.0000    1.0000 C.2     1  LIG1        0.0000
      4 S4          3.2850    2.2396    1.5782 S.3     1  LIG1        0.0000
      5 C5          4.8418    1.6125    1.2853 C.2     1  LIG1        0.0000
      6 C6          4.8538    0.3709    0.7094 C.2     1  LIG1        0.0000
      7 C7          6.1025   -0.4149    0.3447 C.3     1  LIG1        0.0000
      8 C8          6.1256   -1.7377    1.0951 C.3     1  LIG1        0.0000
      9 C9          7.3704   -2.5204    0.7063 C.3     1  LIG1        0.0000
     10 C10         7.3671   -2.7928   -0.7901 C.3     1  LIG1        0.0000
     11 C11         7.3556   -1.4733   -1.5459 C.3     1  LIG1        0.0000
     12 C12         8.5906   -0.6592   -1.1921 C.3     1  LIG1        0.0000
     13 C13         8.6041   -0.3807    0.3031 C.3     1  LIG1        0.0000
     14 C14         8.6079   -1.7056    1.0495 C.3     1  LIG1        0.0000
     15 C15         7.3486    0.3870    0.6867 C.3     1  LIG1        0.0000
     16 C16         6.1119   -0.6920   -1.1506 C.3     1  LIG1        0.0000
     17 S17         3.2872   -0.2411    0.4266 S.3     1  LIG1        0.0000
     18 H           7.3908   -3.3871    1.2048 H       1  LIG1        0.0000
     19 H           7.3415   -1.6507   -2.5299 H       1  LIG1        0.0000
     20 H           9.4165    0.1500    0.5447 H       1  LIG1        0.0000
     21 H          -0.5948   -0.2640    1.0000 H       1  LIG1        0.0000
     22 H           0.6972   -0.8392    0.1835 H       1  LIG1        0.0000
     23 H           0.6972   -0.8392    1.8165 H       1  LIG1        0.0000
     24 H           5.6780    2.1105    1.5153 H       1  LIG1        0.0000
     25 H           5.3113   -2.2684    0.8599 H       1  LIG1        0.0000
     26 H           6.1362   -1.5622    2.0795 H       1  LIG1        0.0000
     27 H           6.5533   -3.3218   -1.0308 H       1  LIG1        0.0000
     28 H           8.1863   -3.3107   -1.0364 H       1  LIG1        0.0000
     29 H           8.5733    0.2067   -1.6921 H       1  LIG1        0.0000
     30 H           9.4112   -1.1726   -1.4428 H       1  LIG1        0.0000
     31 H           9.4236   -2.2242    0.7934 H       1  LIG1        0.0000
     32 H           8.6212   -1.5279    2.0335 H       1  LIG1        0.0000
     33 H           7.3625    0.5686    1.6700 H       1  LIG1        0.0000
     34 H           7.3285    1.2535    0.1879 H       1  LIG1        0.0000
     35 H           6.0993    0.1769   -1.6454 H       1  LIG1        0.0000
     36 H           5.3001   -1.2242   -1.3908 H       1  LIG1        0.0000
@<TRIPOS>BOND
     1     1     2    1
     2     2     3    2
     3     3     4    1
     4     4     5    1
     5     5     6    2
     6     6     7    1
     7     7     8    1
     8     8     9    1
     9     9    10    1
    10    10    11    1
    11    11    12    1
    12    12    13    1
    13    13    14    1
    14    14     9    1
    15    13    15    1
    16    15     7    1
    17    11    16    1
    18    16     7    1
    19     6    17    1
    20    17     3    1
    21     9    18    1
    22    11    19    1
    23    13    20    1
    24     1    21    1
    25     1    22    1
    26     1    23    1
    27     5    24    1
    28     8    25    1
    29     8    26    1
    30    10    27    1
    31    10    28    1
    32    12    29    1
    33    12    30    1
    34    14    31    1
    35    14    32    1
    36    15    33    1
    37    15    34    1
    38    16    35    1
    39    16    36    1
