@<TRIPOS>MOLECULE
*****
 36 39 0 0 0
SMALL
USER_CHARGES

@<TRIPOS>ATOM
      1 C1          0.4021   -0.3429    1.0000 C.3     1  LIG1        0.0000
      2 N2          1.0000    1.0000    1.0000 N.2     1  LIG1        0.0000
      3 C3          2.2703    1.0000    1.0000 C.2     1  LIG1        0.0000
      4 S4          3.2850    2.2396    1.5782 S.3     1  LIG1        0.0000
      5 C5          4.8418    1.6125    1.2853 C.2     1  LIG1        0.0000
      6 C6          4.8538    0.3709    0.7094 C.2     1  LIG1        0.0000
      7 C7          6.1025   -0.4149    0.3447 C.3     1  LIG1        0.0000
      8 C8          6.9386    0.3672   -0.6565 C.3     1  LIG1        0.0000
      9 C9          8.1929   -0.4227   -0.9976 C.3     1  LIG1        0.0000
     10 C10         9.0131   -0.6645    0.2603 C.3     1  LIG1        0.0000
     11 C11         8.1860   -1.4562    1.2609 C.3     1  LIG1        0.0000
     12 C12         7.7873   -2.7965    0.6629 C.3     1  LIG1        0.0000
     13 C13         6.9659   -2.5666   -0.5963 C.3     1  LIG1        0.0000
     14 C14         7.7986   -1.7681   -1.5870 C.3     1  LIG1        0.0000
     15 C15         5.7227   -1.7620   -0.2502 C.3     1  LIG1        0.0000
     16 C16         6.9309   -0.6650    1.5954 C.3     1  LIG1        0.0000
     17 S17         3.2872   -0.2411    0.4266 S.3     1  LIG1        0.0000
     18 H           8.7398    0.0869   -1.6617 H       1  LIG1        0.0000
     19 H           8.7198   -1.6058    2.0932 H       1  LIG1        0.0000
     20 H           6.7042   -3.4439   -0.9987 H       1  LIG1        0.0000
     21 H          -0.5948   -0.2640    1.0000 H       1  LIG1        0.0000
     22 H           0.6972   -0.8392    0.1835 H       1  LIG1        0.0000
     23 H           0.6972   -0.8392    1.8165 H       1  LIG1        0.0000
     24 H           5.6780    2.1105    1.5153 H       1  LIG1        0.0000
     25 H           7.1970    1.2476   -0.2590 H       1  LIG1        0.0000
     26 H           6.4050    0.5207   -1.4882 H       1  LIG1        0.0000
     27 H           9.2725    0.2134    0.6628 H       1  LIG1        0.0000
     28 H           9.8372   -1.1805    0.0267 H       1  LIG1        0.0000
     29 H           7.2427   -3.3089    1.3270 H       1  LIG1        0.0000
     30 H           8.6098   -3.3171    0.4338 H       1  LIG1        0.0000
     31 H           8.6259   -2.2834   -1.8107 H       1  LIG1        0.0000
     32 H           7.2643   -1.6180   -2.4188 H       1  LIG1        0.0000
     33 H           5.1855   -1.6143   -1.0807 H       1  LIG1        0.0000
     34 H           5.1761   -2.2719    0.4140 H       1  LIG1        0.0000
     35 H           6.3833   -1.1814    2.2538 H       1  LIG1        0.0000
     36 H           7.1934    0.2128    1.9960 H       1  LIG1        0.0000
@<TRIPOS>BOND
     1     1     2    1
     2     2     3    2
     3     3     4    1
     4     4     5    1
     5     5     6    2
     6     6     7    1
     7     7     8    1
     8     8     9    1
     9     9    10    1
    10    10    11    1
    11    11    12    1
    12    12    13    1
    13    13    14    1
    14    14     9    1
    15    13    15    1
    16    15     7    1
    17    11    16    1
    18    16     7    1
    19     6    17    1
    20    17     3    1
    21     9    18    1
    22    11    19    1
    23    13    20    1
    24     1    21    1
    25     1    22    1
    26     1    23    1
    27     5    24    1
    28     8    25    1
    29     8    26    1
    30    10    27    1
    31    10    28    1
    32    12    29    1
    33    12    30    1
    34    14    31    1
    35    14    32    1
    36    15    33    1
    37    15    34    1
    38    16    35    1
    39    16    36    1
