@<TRIPOS>MOLECULE

  35   36
SMALL
USER_CHARGES
@<TRIPOS>ATOM
   1 C1          -1.5479    -1.2118    -1.4252 C.3          1    LIG   0.0000
   2 C2          -1.1325    -0.9121     0.0059 C.3          1    LIG   0.0000
   3 C3           0.0682     0.0225     0.0004 C.2          1    LIG   0.0000
   4 C4           0.0440     1.4333     0.0121 C.2          1    LIG   0.0000
   5 C5          -1.1922     2.3176     0.0339 C.3          1    LIG   0.0000
   6 N6           1.2888     1.8406    -0.0034 N.2          1    LIG   0.0000
   7 N7           2.1097     0.8138    -0.0187 N.pl3        1    LIG   0.0000
   8 C8           3.5085     0.8823    -0.0363 C.ar         1    LIG   0.0000
   9 C9           4.1388     1.8454    -0.8179 C.ar         1    LIG   0.0000
  10 C10          5.5277     1.9223    -0.8414 C.ar         1    LIG   0.0000
  11 C11          6.2688     1.0274    -0.0766 C.ar         1    LIG   0.0000
  12 O12          7.6168     1.0940    -0.0952 O.3          1    LIG   0.0000
  13 C13          8.2004     1.9437     0.8815 C.3          1    LIG   0.0000
  14 F14          7.2395     2.5472     1.5752 F            1    LIG   0.0000
  15 F15          8.9542     1.2205     1.7048 F            1    LIG   0.0000
  16 F16          8.9542     2.8591     0.2793 F            1    LIG   0.0000
  17 C17          5.6470     0.0610     0.7075 C.ar         1    LIG   0.0000
  18 C18          4.2582    -0.0082     0.7248 C.ar         1    LIG   0.0000
  19 C19          1.3780    -0.3316    -0.0185 C.2          1    LIG   0.0000
  20 C20          1.9221    -1.7500    -0.0384 C.3          1    LIG   0.0000
  21 H           -2.3370    -1.8261    -1.4216 H            1    LIG   0.0000
  22 H           -1.7915    -0.3589    -1.8871 H            1    LIG   0.0000
  23 H           -0.7885    -1.6475    -1.9084 H            1    LIG   0.0000
  24 H           -1.8919    -0.4765     0.4892 H            1    LIG   0.0000
  25 H           -0.8889    -1.7650     0.4678 H            1    LIG   0.0000
  26 H           -2.0118     1.7447     0.0426 H            1    LIG   0.0000
  27 H           -1.1775     2.8908     0.8531 H            1    LIG   0.0000
  28 H           -1.2005     2.8990    -0.7797 H            1    LIG   0.0000
  29 H            3.5934     2.4823    -1.3628 H            1    LIG   0.0000
  30 H            5.9873     2.6121    -1.4008 H            1    LIG   0.0000
  31 H            6.1922    -0.5762     1.2522 H            1    LIG   0.0000
  32 H            3.7987    -0.6979     1.2843 H            1    LIG   0.0000
  33 H            1.1613    -2.3990    -0.0334 H            1    LIG   0.0000
  34 H            2.4702    -1.8852    -0.8638 H            1    LIG   0.0000
  35 H            2.4930    -1.8994     0.7689 H            1    LIG   0.0000
@<TRIPOS>BOND
   1        1        2 1
   2        2        3 1
   3        3        4 1
   4        4        5 1
   5        4        6 2
   6        6        7 1
   7        7        8 1
   8        8        9 ar
   9        9       10 ar
  10       10       11 ar
  11       11       12 1
  12       12       13 1
  13       13       14 1
  14       13       15 1
  15       13       16 1
  16       11       17 ar
  17       17       18 ar
  18       18        8 ar
  19        7       19 1
  20       19        3 2
  21       19       20 1
  22        1       21 1
  23        1       22 1
  24        1       23 1
  25        2       24 1
  26        2       25 1
  27        5       26 1
  28        5       27 1
  29        5       28 1
  30        9       29 1
  31       10       30 1
  32       17       31 1
  33       18       32 1
  34       20       33 1
  35       20       34 1
  36       20       35 1

@<TRIPOS>MOLECULE

  35   36
SMALL
USER_CHARGES
@<TRIPOS>ATOM
   1 C1          -1.5479    -1.2118    -1.4252 C.3          1    LIG   0.0000
   2 C2          -1.1325    -0.9121     0.0059 C.3          1    LIG   0.0000
   3 C3           0.0682     0.0225     0.0004 C.2          1    LIG   0.0000
   4 C4           0.0440     1.4333     0.0121 C.2          1    LIG   0.0000
   5 C5          -1.1922     2.3176     0.0339 C.3          1    LIG   0.0000
   6 N6           1.2888     1.8406    -0.0034 N.2          1    LIG   0.0000
   7 N7           2.1097     0.8138    -0.0187 N.pl3        1    LIG   0.0000
   8 C8           3.5085     0.8823    -0.0363 C.ar         1    LIG   0.0000
   9 C9           4.1388     1.8454    -0.8179 C.ar         1    LIG   0.0000
  10 C10          5.5277     1.9223    -0.8414 C.ar         1    LIG   0.0000
  11 C11          6.2688     1.0274    -0.0766 C.ar         1    LIG   0.0000
  12 O12          7.6168     1.0940    -0.0952 O.3          1    LIG   0.0000
  13 C13          8.2543     0.3046    -1.0886 C.3          1    LIG   0.0000
  14 F14          7.3388    -0.3916    -1.7565 F            1    LIG   0.0000
  15 F15          8.9102     1.0974    -1.9313 F            1    LIG   0.0000
  16 F16          9.1108    -0.5313    -0.5086 F            1    LIG   0.0000
  17 C17          5.6470     0.0610     0.7075 C.ar         1    LIG   0.0000
  18 C18          4.2582    -0.0082     0.7248 C.ar         1    LIG   0.0000
  19 C19          1.3780    -0.3316    -0.0185 C.2          1    LIG   0.0000
  20 C20          1.9221    -1.7500    -0.0384 C.3          1    LIG   0.0000
  21 H           -2.3370    -1.8261    -1.4216 H            1    LIG   0.0000
  22 H           -1.7915    -0.3589    -1.8871 H            1    LIG   0.0000
  23 H           -0.7885    -1.6475    -1.9084 H            1    LIG   0.0000
  24 H           -1.8919    -0.4765     0.4892 H            1    LIG   0.0000
  25 H           -0.8889    -1.7650     0.4678 H            1    LIG   0.0000
  26 H           -2.0118     1.7447     0.0426 H            1    LIG   0.0000
  27 H           -1.1775     2.8908     0.8531 H            1    LIG   0.0000
  28 H           -1.2005     2.8990    -0.7797 H            1    LIG   0.0000
  29 H            3.5934     2.4823    -1.3628 H            1    LIG   0.0000
  30 H            5.9873     2.6121    -1.4008 H            1    LIG   0.0000
  31 H            6.1922    -0.5762     1.2522 H            1    LIG   0.0000
  32 H            3.7987    -0.6979     1.2843 H            1    LIG   0.0000
  33 H            1.1613    -2.3990    -0.0334 H            1    LIG   0.0000
  34 H            2.4702    -1.8852    -0.8638 H            1    LIG   0.0000
  35 H            2.4930    -1.8994     0.7689 H            1    LIG   0.0000
@<TRIPOS>BOND
   1        1        2 1
   2        2        3 1
   3        3        4 1
   4        4        5 1
   5        4        6 2
   6        6        7 1
   7        7        8 1
   8        8        9 ar
   9        9       10 ar
  10       10       11 ar
  11       11       12 1
  12       12       13 1
  13       13       14 1
  14       13       15 1
  15       13       16 1
  16       11       17 ar
  17       17       18 ar
  18       18        8 ar
  19        7       19 1
  20       19        3 2
  21       19       20 1
  22        1       21 1
  23        1       22 1
  24        1       23 1
  25        2       24 1
  26        2       25 1
  27        5       26 1
  28        5       27 1
  29        5       28 1
  30        9       29 1
  31       10       30 1
  32       17       31 1
  33       18       32 1
  34       20       33 1
  35       20       34 1
  36       20       35 1

@<TRIPOS>MOLECULE

  35   36
SMALL
USER_CHARGES
@<TRIPOS>ATOM
   1 C1          -1.5479    -1.2118    -1.4252 C.3          1    LIG   0.0000
   2 C2          -1.1325    -0.9121     0.0059 C.3          1    LIG   0.0000
   3 C3           0.0682     0.0225     0.0004 C.2          1    LIG   0.0000
   4 C4           0.0440     1.4333     0.0121 C.2          1    LIG   0.0000
   5 C5          -1.1922     2.3176     0.0339 C.3          1    LIG   0.0000
   6 N6           1.2888     1.8406    -0.0034 N.2          1    LIG   0.0000
   7 N7           2.1097     0.8138    -0.0187 N.pl3        1    LIG   0.0000
   8 C8           3.5085     0.8823    -0.0363 C.ar         1    LIG   0.0000
   9 C9           4.1587     1.8381     0.7377 C.ar         1    LIG   0.0000
  10 C10          5.5479     1.9136     0.7280 C.ar         1    LIG   0.0000
  11 C11          6.2691     1.0246    -0.0622 C.ar         1    LIG   0.0000
  12 O12          7.6171     1.0923    -0.0789 O.3          1    LIG   0.0000
  13 C13          8.2812     0.2967     0.8919 C.3          1    LIG   0.0000
  14 F14          7.3803    -0.3068     1.6620 F            1    LIG   0.0000
  15 F15          9.0264    -0.6193     0.2799 F            1    LIG   0.0000
  16 F16          9.0589     1.0712     1.6430 F            1    LIG   0.0000
  17 C17          5.6273     0.0659    -0.8395 C.ar         1    LIG   0.0000
  18 C18          4.2384    -0.0021    -0.8233 C.ar         1    LIG   0.0000
  19 C19          1.3780    -0.3316    -0.0185 C.2          1    LIG   0.0000
  20 C20          1.9221    -1.7500    -0.0384 C.3          1    LIG   0.0000
  21 H           -2.3370    -1.8261    -1.4216 H            1    LIG   0.0000
  22 H           -1.7915    -0.3589    -1.8871 H            1    LIG   0.0000
  23 H           -0.7885    -1.6475    -1.9084 H            1    LIG   0.0000
  24 H           -1.8919    -0.4765     0.4892 H            1    LIG   0.0000
  25 H           -0.8889    -1.7650     0.4678 H            1    LIG   0.0000
  26 H           -2.0118     1.7447     0.0426 H            1    LIG   0.0000
  27 H           -1.1775     2.8908     0.8531 H            1    LIG   0.0000
  28 H           -1.2005     2.8990    -0.7797 H            1    LIG   0.0000
  29 H            3.6275     2.4709     1.3011 H            1    LIG   0.0000
  30 H            6.0218     2.5981     1.2819 H            1    LIG   0.0000
  31 H            6.1583    -0.5668    -1.4033 H            1    LIG   0.0000
  32 H            3.7646    -0.6867    -1.3772 H            1    LIG   0.0000
  33 H            1.1613    -2.3990    -0.0334 H            1    LIG   0.0000
  34 H            2.4702    -1.8852    -0.8638 H            1    LIG   0.0000
  35 H            2.4930    -1.8994     0.7689 H            1    LIG   0.0000
@<TRIPOS>BOND
   1        1        2 1
   2        2        3 1
   3        3        4 1
   4        4        5 1
   5        4        6 2
   6        6        7 1
   7        7        8 1
   8        8        9 ar
   9        9       10 ar
  10       10       11 ar
  11       11       12 1
  12       12       13 1
  13       13       14 1
  14       13       15 1
  15       13       16 1
  16       11       17 ar
  17       17       18 ar
  18       18        8 ar
  19        7       19 1
  20       19        3 2
  21       19       20 1
  22        1       21 1
  23        1       22 1
  24        1       23 1
  25        2       24 1
  26        2       25 1
  27        5       26 1
  28        5       27 1
  29        5       28 1
  30        9       29 1
  31       10       30 1
  32       17       31 1
  33       18       32 1
  34       20       33 1
  35       20       34 1
  36       20       35 1

@<TRIPOS>MOLECULE

  35   36
SMALL
USER_CHARGES
@<TRIPOS>ATOM
   1 C1          -1.5479    -1.2118    -1.4252 C.3          1    LIG   0.0000
   2 C2          -1.1325    -0.9121     0.0059 C.3          1    LIG   0.0000
   3 C3           0.0682     0.0225     0.0004 C.2          1    LIG   0.0000
   4 C4           0.0440     1.4333     0.0121 C.2          1    LIG   0.0000
   5 C5          -1.1922     2.3176     0.0339 C.3          1    LIG   0.0000
   6 N6           1.2888     1.8406    -0.0034 N.2          1    LIG   0.0000
   7 N7           2.1097     0.8138    -0.0187 N.pl3        1    LIG   0.0000
   8 C8           3.5085     0.8823    -0.0363 C.ar         1    LIG   0.0000
   9 C9           4.1587     1.8381     0.7377 C.ar         1    LIG   0.0000
  10 C10          5.5479     1.9136     0.7280 C.ar         1    LIG   0.0000
  11 C11          6.2691     1.0246    -0.0622 C.ar         1    LIG   0.0000
  12 O12          7.6171     1.0923    -0.0789 O.3          1    LIG   0.0000
  13 C13          8.1740     1.9491    -1.0649 C.3          1    LIG   0.0000
  14 F14          7.1985     2.4585    -1.8117 F            1    LIG   0.0000
  15 F15          8.8386     2.9359    -0.4704 F            1    LIG   0.0000
  16 F16          9.0066     1.2554    -1.8359 F            1    LIG   0.0000
  17 C17          5.6273     0.0659    -0.8395 C.ar         1    LIG   0.0000
  18 C18          4.2384    -0.0021    -0.8233 C.ar         1    LIG   0.0000
  19 C19          1.3780    -0.3316    -0.0185 C.2          1    LIG   0.0000
  20 C20          1.9221    -1.7500    -0.0384 C.3          1    LIG   0.0000
  21 H           -2.3370    -1.8261    -1.4216 H            1    LIG   0.0000
  22 H           -1.7915    -0.3589    -1.8871 H            1    LIG   0.0000
  23 H           -0.7885    -1.6475    -1.9084 H            1    LIG   0.0000
  24 H           -1.8919    -0.4765     0.4892 H            1    LIG   0.0000
  25 H           -0.8889    -1.7650     0.4678 H            1    LIG   0.0000
  26 H           -2.0118     1.7447     0.0426 H            1    LIG   0.0000
  27 H           -1.1775     2.8908     0.8531 H            1    LIG   0.0000
  28 H           -1.2005     2.8990    -0.7797 H            1    LIG   0.0000
  29 H            3.6275     2.4709     1.3011 H            1    LIG   0.0000
  30 H            6.0218     2.5981     1.2819 H            1    LIG   0.0000
  31 H            6.1583    -0.5668    -1.4033 H            1    LIG   0.0000
  32 H            3.7646    -0.6867    -1.3772 H            1    LIG   0.0000
  33 H            1.1613    -2.3990    -0.0334 H            1    LIG   0.0000
  34 H            2.4702    -1.8852    -0.8638 H            1    LIG   0.0000
  35 H            2.4930    -1.8994     0.7689 H            1    LIG   0.0000
@<TRIPOS>BOND
   1        1        2 1
   2        2        3 1
   3        3        4 1
   4        4        5 1
   5        4        6 2
   6        6        7 1
   7        7        8 1
   8        8        9 ar
   9        9       10 ar
  10       10       11 ar
  11       11       12 1
  12       12       13 1
  13       13       14 1
  14       13       15 1
  15       13       16 1
  16       11       17 ar
  17       17       18 ar
  18       18        8 ar
  19        7       19 1
  20       19        3 2
  21       19       20 1
  22        1       21 1
  23        1       22 1
  24        1       23 1
  25        2       24 1
  26        2       25 1
  27        5       26 1
  28        5       27 1
  29        5       28 1
  30        9       29 1
  31       10       30 1
  32       17       31 1
  33       18       32 1
  34       20       33 1
  35       20       34 1
  36       20       35 1

@<TRIPOS>MOLECULE

  35   36
SMALL
USER_CHARGES
@<TRIPOS>ATOM
   1 C1          -1.5479    -1.2118    -1.4252 C.3          1    LIG   0.0000
   2 C2          -1.1325    -0.9121     0.0059 C.3          1    LIG   0.0000
   3 C3           0.0682     0.0225     0.0004 C.2          1    LIG   0.0000
   4 C4           0.0440     1.4333     0.0121 C.2          1    LIG   0.0000
   5 C5          -1.1922     2.3176     0.0339 C.3          1    LIG   0.0000
   6 N6           1.2888     1.8406    -0.0034 N.2          1    LIG   0.0000
   7 N7           2.1097     0.8138    -0.0187 N.pl3        1    LIG   0.0000
   8 C8           3.5085     0.8823    -0.0363 C.ar         1    LIG   0.0000
   9 C9           4.2439     0.1346     0.8779 C.ar         1    LIG   0.0000
  10 C10          5.6338     0.1949     0.8678 C.ar         1    LIG   0.0000
  11 C11          6.2698     1.0086    -0.0640 C.ar         1    LIG   0.0000
  12 O12          7.6180     1.0743    -0.0793 O.3          1    LIG   0.0000
  13 C13          8.2668     0.1263    -0.9140 C.3          1    LIG   0.0000
  14 F14          7.3592    -0.6774    -1.4609 F            1    LIG   0.0000
  15 F15          8.9316     0.7627    -1.8742 F            1    LIG   0.0000
  16 F16          9.1174    -0.5942    -0.1886 F            1    LIG   0.0000
  17 C17          5.5425     1.7598    -0.9815 C.ar         1    LIG   0.0000
  18 C18          4.1536     1.6930    -0.9640 C.ar         1    LIG   0.0000
  19 C19          1.3780    -0.3316    -0.0185 C.2          1    LIG   0.0000
  20 C20          1.9221    -1.7500    -0.0384 C.3          1    LIG   0.0000
  21 H           -2.3370    -1.8261    -1.4216 H            1    LIG   0.0000
  22 H           -1.7915    -0.3589    -1.8871 H            1    LIG   0.0000
  23 H           -0.7885    -1.6475    -1.9084 H            1    LIG   0.0000
  24 H           -1.8919    -0.4765     0.4892 H            1    LIG   0.0000
  25 H           -0.8889    -1.7650     0.4678 H            1    LIG   0.0000
  26 H           -2.0118     1.7447     0.0426 H            1    LIG   0.0000
  27 H           -1.1775     2.8908     0.8531 H            1    LIG   0.0000
  28 H           -1.2005     2.8990    -0.7797 H            1    LIG   0.0000
  29 H            3.7734    -0.4462     1.5422 H            1    LIG   0.0000
  30 H            6.1687    -0.3399     1.5220 H            1    LIG   0.0000
  31 H            6.0128     2.3409    -1.6457 H            1    LIG   0.0000
  32 H            3.6189     2.2278    -1.6183 H            1    LIG   0.0000
  33 H            1.1613    -2.3990    -0.0334 H            1    LIG   0.0000
  34 H            2.4702    -1.8852    -0.8638 H            1    LIG   0.0000
  35 H            2.4930    -1.8994     0.7689 H            1    LIG   0.0000
@<TRIPOS>BOND
   1        1        2 1
   2        2        3 1
   3        3        4 1
   4        4        5 1
   5        4        6 2
   6        6        7 1
   7        7        8 1
   8        8        9 ar
   9        9       10 ar
  10       10       11 ar
  11       11       12 1
  12       12       13 1
  13       13       14 1
  14       13       15 1
  15       13       16 1
  16       11       17 ar
  17       17       18 ar
  18       18        8 ar
  19        7       19 1
  20       19        3 2
  21       19       20 1
  22        1       21 1
  23        1       22 1
  24        1       23 1
  25        2       24 1
  26        2       25 1
  27        5       26 1
  28        5       27 1
  29        5       28 1
  30        9       29 1
  31       10       30 1
  32       17       31 1
  33       18       32 1
  34       20       33 1
  35       20       34 1
  36       20       35 1

@<TRIPOS>MOLECULE

  35   36
SMALL
USER_CHARGES
@<TRIPOS>ATOM
   1 C1          -1.5479    -1.2118    -1.4252 C.3          1    LIG   0.0000
   2 C2          -1.1325    -0.9121     0.0059 C.3          1    LIG   0.0000
   3 C3           0.0682     0.0225     0.0004 C.2          1    LIG   0.0000
   4 C4           0.0440     1.4333     0.0121 C.2          1    LIG   0.0000
   5 C5          -1.1922     2.3176     0.0339 C.3          1    LIG   0.0000
   6 N6           1.2888     1.8406    -0.0034 N.2          1    LIG   0.0000
   7 N7           2.1097     0.8138    -0.0187 N.pl3        1    LIG   0.0000
   8 C8           3.5085     0.8823    -0.0363 C.ar         1    LIG   0.0000
   9 C9           4.2439     0.1346     0.8779 C.ar         1    LIG   0.0000
  10 C10          5.6338     0.1949     0.8678 C.ar         1    LIG   0.0000
  11 C11          6.2698     1.0086    -0.0640 C.ar         1    LIG   0.0000
  12 O12          7.6180     1.0743    -0.0793 O.3          1    LIG   0.0000
  13 C13          8.1903     2.0819     0.7416 C.3          1    LIG   0.0000
  14 F14          7.2214     2.7941     1.3098 F            1    LIG   0.0000
  15 F15          8.9354     1.5142     1.6858 F            1    LIG   0.0000
  16 F16          8.9501     2.8810    -0.0021 F            1    LIG   0.0000
  17 C17          5.5425     1.7598    -0.9815 C.ar         1    LIG   0.0000
  18 C18          4.1536     1.6930    -0.9640 C.ar         1    LIG   0.0000
  19 C19          1.3780    -0.3316    -0.0185 C.2          1    LIG   0.0000
  20 C20          1.9221    -1.7500    -0.0384 C.3          1    LIG   0.0000
  21 H           -2.3370    -1.8261    -1.4216 H            1    LIG   0.0000
  22 H           -1.7915    -0.3589    -1.8871 H            1    LIG   0.0000
  23 H           -0.7885    -1.6475    -1.9084 H            1    LIG   0.0000
  24 H           -1.8919    -0.4765     0.4892 H            1    LIG   0.0000
  25 H           -0.8889    -1.7650     0.4678 H            1    LIG   0.0000
  26 H           -2.0118     1.7447     0.0426 H            1    LIG   0.0000
  27 H           -1.1775     2.8908     0.8531 H            1    LIG   0.0000
  28 H           -1.2005     2.8990    -0.7797 H            1    LIG   0.0000
  29 H            3.7734    -0.4462     1.5422 H            1    LIG   0.0000
  30 H            6.1687    -0.3399     1.5220 H            1    LIG   0.0000
  31 H            6.0128     2.3409    -1.6457 H            1    LIG   0.0000
  32 H            3.6189     2.2278    -1.6183 H            1    LIG   0.0000
  33 H            1.1613    -2.3990    -0.0334 H            1    LIG   0.0000
  34 H            2.4702    -1.8852    -0.8638 H            1    LIG   0.0000
  35 H            2.4930    -1.8994     0.7689 H            1    LIG   0.0000
@<TRIPOS>BOND
   1        1        2 1
   2        2        3 1
   3        3        4 1
   4        4        5 1
   5        4        6 2
   6        6        7 1
   7        7        8 1
   8        8        9 ar
   9        9       10 ar
  10       10       11 ar
  11       11       12 1
  12       12       13 1
  13       13       14 1
  14       13       15 1
  15       13       16 1
  16       11       17 ar
  17       17       18 ar
  18       18        8 ar
  19        7       19 1
  20       19        3 2
  21       19       20 1
  22        1       21 1
  23        1       22 1
  24        1       23 1
  25        2       24 1
  26        2       25 1
  27        5       26 1
  28        5       27 1
  29        5       28 1
  30        9       29 1
  31       10       30 1
  32       17       31 1
  33       18       32 1
  34       20       33 1
  35       20       34 1
  36       20       35 1

@<TRIPOS>MOLECULE

  35   36
SMALL
USER_CHARGES
@<TRIPOS>ATOM
   1 C1          -1.5479    -1.2118    -1.4252 C.3          1    LIG   0.0000
   2 C2          -1.1325    -0.9121     0.0059 C.3          1    LIG   0.0000
   3 C3           0.0682     0.0225     0.0004 C.2          1    LIG   0.0000
   4 C4           0.0440     1.4333     0.0121 C.2          1    LIG   0.0000
   5 C5          -1.1922     2.3176     0.0339 C.3          1    LIG   0.0000
   6 N6           1.2888     1.8406    -0.0034 N.2          1    LIG   0.0000
   7 N7           2.1097     0.8138    -0.0187 N.pl3        1    LIG   0.0000
   8 C8           3.5085     0.8823    -0.0363 C.ar         1    LIG   0.0000
   9 C9           4.2201     0.1432    -0.9760 C.ar         1    LIG   0.0000
  10 C10          5.6097     0.2053    -1.0025 C.ar         1    LIG   0.0000
  11 C11          6.2695     1.0119    -0.0811 C.ar         1    LIG   0.0000
  12 O12          7.6176     1.0764    -0.0986 O.3          1    LIG   0.0000
  13 C13          8.1705     2.0891    -0.9264 C.3          1    LIG   0.0000
  14 F14          7.1913     2.7239    -1.5643 F            1    LIG   0.0000
  15 F15          8.8456     2.9554    -0.1762 F            1    LIG   0.0000
  16 F16          8.9926     1.5364    -1.8139 F            1    LIG   0.0000
  17 C17          5.5660     1.7541     0.8622 C.ar         1    LIG   0.0000
  18 C18          4.1772     1.6858     0.8809 C.ar         1    LIG   0.0000
  19 C19          1.3780    -0.3316    -0.0185 C.2          1    LIG   0.0000
  20 C20          1.9221    -1.7500    -0.0384 C.3          1    LIG   0.0000
  21 H           -2.3370    -1.8261    -1.4216 H            1    LIG   0.0000
  22 H           -1.7915    -0.3589    -1.8871 H            1    LIG   0.0000
  23 H           -0.7885    -1.6475    -1.9084 H            1    LIG   0.0000
  24 H           -1.8919    -0.4765     0.4892 H            1    LIG   0.0000
  25 H           -0.8889    -1.7650     0.4678 H            1    LIG   0.0000
  26 H           -2.0118     1.7447     0.0426 H            1    LIG   0.0000
  27 H           -1.1775     2.8908     0.8531 H            1    LIG   0.0000
  28 H           -1.2005     2.8990    -0.7797 H            1    LIG   0.0000
  29 H            3.7328    -0.4326    -1.6325 H            1    LIG   0.0000
  30 H            6.1276    -0.3232    -1.6751 H            1    LIG   0.0000
  31 H            6.0532     2.3297     1.5189 H            1    LIG   0.0000
  32 H            3.6595     2.2144     1.5536 H            1    LIG   0.0000
  33 H            1.1613    -2.3990    -0.0334 H            1    LIG   0.0000
  34 H            2.4702    -1.8852    -0.8638 H            1    LIG   0.0000
  35 H            2.4930    -1.8994     0.7689 H            1    LIG   0.0000
@<TRIPOS>BOND
   1        1        2 1
   2        2        3 1
   3        3        4 1
   4        4        5 1
   5        4        6 2
   6        6        7 1
   7        7        8 1
   8        8        9 ar
   9        9       10 ar
  10       10       11 ar
  11       11       12 1
  12       12       13 1
  13       13       14 1
  14       13       15 1
  15       13       16 1
  16       11       17 ar
  17       17       18 ar
  18       18        8 ar
  19        7       19 1
  20       19        3 2
  21       19       20 1
  22        1       21 1
  23        1       22 1
  24        1       23 1
  25        2       24 1
  26        2       25 1
  27        5       26 1
  28        5       27 1
  29        5       28 1
  30        9       29 1
  31       10       30 1
  32       17       31 1
  33       18       32 1
  34       20       33 1
  35       20       34 1
  36       20       35 1

@<TRIPOS>MOLECULE

  35   36
SMALL
USER_CHARGES
@<TRIPOS>ATOM
   1 C1          -1.5479    -1.2118    -1.4252 C.3          1    LIG   0.0000
   2 C2          -1.1325    -0.9121     0.0059 C.3          1    LIG   0.0000
   3 C3           0.0682     0.0225     0.0004 C.2          1    LIG   0.0000
   4 C4           0.0440     1.4333     0.0121 C.2          1    LIG   0.0000
   5 C5          -1.1922     2.3176     0.0339 C.3          1    LIG   0.0000
   6 N6           1.2888     1.8406    -0.0034 N.2          1    LIG   0.0000
   7 N7           2.1097     0.8138    -0.0187 N.pl3        1    LIG   0.0000
   8 C8           3.5085     0.8823    -0.0363 C.ar         1    LIG   0.0000
   9 C9           4.2201     0.1432    -0.9760 C.ar         1    LIG   0.0000
  10 C10          5.6097     0.2053    -1.0025 C.ar         1    LIG   0.0000
  11 C11          6.2695     1.0119    -0.0811 C.ar         1    LIG   0.0000
  12 O12          7.6176     1.0764    -0.0986 O.3          1    LIG   0.0000
  13 C13          8.2859     0.1220     0.7132 C.3          1    LIG   0.0000
  14 F14          7.3885    -0.6025     1.3756 F            1    LIG   0.0000
  15 F15          9.0207    -0.6769    -0.0553 F            1    LIG   0.0000
  16 F16          9.0743     0.7516     1.5798 F            1    LIG   0.0000
  17 C17          5.5660     1.7541     0.8622 C.ar         1    LIG   0.0000
  18 C18          4.1772     1.6858     0.8809 C.ar         1    LIG   0.0000
  19 C19          1.3780    -0.3316    -0.0185 C.2          1    LIG   0.0000
  20 C20          1.9221    -1.7500    -0.0384 C.3          1    LIG   0.0000
  21 H           -2.3370    -1.8261    -1.4216 H            1    LIG   0.0000
  22 H           -1.7915    -0.3589    -1.8871 H            1    LIG   0.0000
  23 H           -0.7885    -1.6475    -1.9084 H            1    LIG   0.0000
  24 H           -1.8919    -0.4765     0.4892 H            1    LIG   0.0000
  25 H           -0.8889    -1.7650     0.4678 H            1    LIG   0.0000
  26 H           -2.0118     1.7447     0.0426 H            1    LIG   0.0000
  27 H           -1.1775     2.8908     0.8531 H            1    LIG   0.0000
  28 H           -1.2005     2.8990    -0.7797 H            1    LIG   0.0000
  29 H            3.7328    -0.4326    -1.6325 H            1    LIG   0.0000
  30 H            6.1276    -0.3232    -1.6751 H            1    LIG   0.0000
  31 H            6.0532     2.3297     1.5189 H            1    LIG   0.0000
  32 H            3.6595     2.2144     1.5536 H            1    LIG   0.0000
  33 H            1.1613    -2.3990    -0.0334 H            1    LIG   0.0000
  34 H            2.4702    -1.8852    -0.8638 H            1    LIG   0.0000
  35 H            2.4930    -1.8994     0.7689 H            1    LIG   0.0000
@<TRIPOS>BOND
   1        1        2 1
   2        2        3 1
   3        3        4 1
   4        4        5 1
   5        4        6 2
   6        6        7 1
   7        7        8 1
   8        8        9 ar
   9        9       10 ar
  10       10       11 ar
  11       11       12 1
  12       12       13 1
  13       13       14 1
  14       13       15 1
  15       13       16 1
  16       11       17 ar
  17       17       18 ar
  18       18        8 ar
  19        7       19 1
  20       19        3 2
  21       19       20 1
  22        1       21 1
  23        1       22 1
  24        1       23 1
  25        2       24 1
  26        2       25 1
  27        5       26 1
  28        5       27 1
  29        5       28 1
  30        9       29 1
  31       10       30 1
  32       17       31 1
  33       18       32 1
  34       20       33 1
  35       20       34 1
  36       20       35 1

@<TRIPOS>MOLECULE

  35   36
SMALL
USER_CHARGES
@<TRIPOS>ATOM
   1 C1          -1.5167    -1.2350     1.4407 C.3          1    LIG   0.0000
   2 C2          -1.1325    -0.9121     0.0059 C.3          1    LIG   0.0000
   3 C3           0.0682     0.0225     0.0004 C.2          1    LIG   0.0000
   4 C4           0.0440     1.4333     0.0121 C.2          1    LIG   0.0000
   5 C5          -1.1922     2.3176     0.0339 C.3          1    LIG   0.0000
   6 N6           1.2888     1.8406    -0.0034 N.2          1    LIG   0.0000
   7 N7           2.1097     0.8138    -0.0187 N.pl3        1    LIG   0.0000
   8 C8           3.5085     0.8823    -0.0363 C.ar         1    LIG   0.0000
   9 C9           4.1890     0.7115    -1.2377 C.ar         1    LIG   0.0000
  10 C10          5.5783     0.7788    -1.2660 C.ar         1    LIG   0.0000
  11 C11          6.2692     1.0177    -0.0825 C.ar         1    LIG   0.0000
  12 O12          7.6173     1.0826    -0.1007 O.3          1    LIG   0.0000
  13 C13          8.1642     2.3735    -0.3264 C.3          1    LIG   0.0000
  14 F14          7.1789     3.2418    -0.5364 F            1    LIG   0.0000
  15 F15          8.8672     2.7495     0.7381 F            1    LIG   0.0000
  16 F16          8.9587     2.3382    -1.3925 F            1    LIG   0.0000
  17 C17          5.5970     1.1893     1.1233 C.ar         1    LIG   0.0000
  18 C18          4.2081     1.1205     1.1417 C.ar         1    LIG   0.0000
  19 C19          1.3780    -0.3316    -0.0185 C.2          1    LIG   0.0000
  20 C20          1.9221    -1.7500    -0.0384 C.3          1    LIG   0.0000
  21 H           -2.3057    -1.8493     1.4443 H            1    LIG   0.0000
  22 H           -0.7470    -1.6783     1.9002 H            1    LIG   0.0000
  23 H           -1.7500    -0.3898     1.9215 H            1    LIG   0.0000
  24 H           -0.8991    -1.7573    -0.4749 H            1    LIG   0.0000
  25 H           -1.9021    -0.4688    -0.4536 H            1    LIG   0.0000
  26 H           -2.0118     1.7447     0.0426 H            1    LIG   0.0000
  27 H           -1.1775     2.8908     0.8531 H            1    LIG   0.0000
  28 H           -1.2005     2.8990    -0.7797 H            1    LIG   0.0000
  29 H            3.6795     0.5404    -2.0810 H            1    LIG   0.0000
  30 H            6.0739     0.6570    -2.1260 H            1    LIG   0.0000
  31 H            6.1064     1.3601     1.9667 H            1    LIG   0.0000
  32 H            3.7127     1.2423     2.0018 H            1    LIG   0.0000
  33 H            1.1613    -2.3990    -0.0334 H            1    LIG   0.0000
  34 H            2.4702    -1.8852    -0.8638 H            1    LIG   0.0000
  35 H            2.4930    -1.8994     0.7689 H            1    LIG   0.0000
@<TRIPOS>BOND
   1        1        2 1
   2        2        3 1
   3        3        4 1
   4        4        5 1
   5        4        6 2
   6        6        7 1
   7        7        8 1
   8        8        9 ar
   9        9       10 ar
  10       10       11 ar
  11       11       12 1
  12       12       13 1
  13       13       14 1
  14       13       15 1
  15       13       16 1
  16       11       17 ar
  17       17       18 ar
  18       18        8 ar
  19        7       19 1
  20       19        3 2
  21       19       20 1
  22        1       21 1
  23        1       22 1
  24        1       23 1
  25        2       24 1
  26        2       25 1
  27        5       26 1
  28        5       27 1
  29        5       28 1
  30        9       29 1
  31       10       30 1
  32       17       31 1
  33       18       32 1
  34       20       33 1
  35       20       34 1
  36       20       35 1

@<TRIPOS>MOLECULE

  35   36
SMALL
USER_CHARGES
@<TRIPOS>ATOM
   1 C1          -1.5167    -1.2350     1.4407 C.3          1    LIG   0.0000
   2 C2          -1.1325    -0.9121     0.0059 C.3          1    LIG   0.0000
   3 C3           0.0682     0.0225     0.0004 C.2          1    LIG   0.0000
   4 C4           0.0440     1.4333     0.0121 C.2          1    LIG   0.0000
   5 C5          -1.1922     2.3176     0.0339 C.3          1    LIG   0.0000
   6 N6           1.2888     1.8406    -0.0034 N.2          1    LIG   0.0000
   7 N7           2.1097     0.8138    -0.0187 N.pl3        1    LIG   0.0000
   8 C8           3.5085     0.8823    -0.0363 C.ar         1    LIG   0.0000
   9 C9           4.1890     0.7115    -1.2377 C.ar         1    LIG   0.0000
  10 C10          5.5783     0.7788    -1.2660 C.ar         1    LIG   0.0000
  11 C11          6.2692     1.0177    -0.0825 C.ar         1    LIG   0.0000
  12 O12          7.6173     1.0826    -0.1007 O.3          1    LIG   0.0000
  13 C13          8.2916    -0.1495     0.1084 C.3          1    LIG   0.0000
  14 F14          7.4003    -1.1082     0.3438 F            1    LIG   0.0000
  15 F15          8.9984    -0.4576    -0.9753 F            1    LIG   0.0000
  16 F16          9.1075    -0.0367     1.1526 F            1    LIG   0.0000
  17 C17          5.5970     1.1893     1.1233 C.ar         1    LIG   0.0000
  18 C18          4.2081     1.1205     1.1417 C.ar         1    LIG   0.0000
  19 C19          1.3780    -0.3316    -0.0185 C.2          1    LIG   0.0000
  20 C20          1.9221    -1.7500    -0.0384 C.3          1    LIG   0.0000
  21 H           -2.3057    -1.8493     1.4443 H            1    LIG   0.0000
  22 H           -0.7470    -1.6783     1.9002 H            1    LIG   0.0000
  23 H           -1.7500    -0.3898     1.9215 H            1    LIG   0.0000
  24 H           -0.8991    -1.7573    -0.4749 H            1    LIG   0.0000
  25 H           -1.9021    -0.4688    -0.4536 H            1    LIG   0.0000
  26 H           -2.0118     1.7447     0.0426 H            1    LIG   0.0000
  27 H           -1.1775     2.8908     0.8531 H            1    LIG   0.0000
  28 H           -1.2005     2.8990    -0.7797 H            1    LIG   0.0000
  29 H            3.6795     0.5404    -2.0810 H            1    LIG   0.0000
  30 H            6.0739     0.6570    -2.1260 H            1    LIG   0.0000
  31 H            6.1064     1.3601     1.9667 H            1    LIG   0.0000
  32 H            3.7127     1.2423     2.0018 H            1    LIG   0.0000
  33 H            1.1613    -2.3990    -0.0334 H            1    LIG   0.0000
  34 H            2.4702    -1.8852    -0.8638 H            1    LIG   0.0000
  35 H            2.4930    -1.8994     0.7689 H            1    LIG   0.0000
@<TRIPOS>BOND
   1        1        2 1
   2        2        3 1
   3        3        4 1
   4        4        5 1
   5        4        6 2
   6        6        7 1
   7        7        8 1
   8        8        9 ar
   9        9       10 ar
  10       10       11 ar
  11       11       12 1
  12       12       13 1
  13       13       14 1
  14       13       15 1
  15       13       16 1
  16       11       17 ar
  17       17       18 ar
  18       18        8 ar
  19        7       19 1
  20       19        3 2
  21       19       20 1
  22        1       21 1
  23        1       22 1
  24        1       23 1
  25        2       24 1
  26        2       25 1
  27        5       26 1
  28        5       27 1
  29        5       28 1
  30        9       29 1
  31       10       30 1
  32       17       31 1
  33       18       32 1
  34       20       33 1
  35       20       34 1
  36       20       35 1

