@<TRIPOS>MOLECULE
*****
 35 36 0 0 0
SMALL
USER_CHARGES

@<TRIPOS>ATOM
      1 C1         -1.5479   -1.2118   -1.4252 C.3     1  LIG1        0.0000
      2 C2         -1.1325   -0.9121    0.0059 C.3     1  LIG1        0.0000
      3 C3          0.0682    0.0225    0.0004 C.2     1  LIG1        0.0000
      4 C4          0.0440    1.4333    0.0121 C.2     1  LIG1        0.0000
      5 C5         -1.1922    2.3176    0.0339 C.3     1  LIG1        0.0000
      6 N6          1.2888    1.8406   -0.0034 N.2     1  LIG1        0.0000
      7 N7          2.1097    0.8138   -0.0187 N.pl3   1  LIG1        0.0000
      8 C8          3.5085    0.8823   -0.0363 C.ar    1  LIG1        0.0000
      9 C9          4.2439    0.1346    0.8779 C.ar    1  LIG1        0.0000
     10 C10         5.6338    0.1949    0.8678 C.ar    1  LIG1        0.0000
     11 C11         6.2698    1.0086   -0.0640 C.ar    1  LIG1        0.0000
     12 O12         7.6180    1.0743   -0.0793 O.3     1  LIG1        0.0000
     13 C13         8.1903    2.0819    0.7416 C.3     1  LIG1        0.0000
     14 F14         7.2214    2.7941    1.3098 F       1  LIG1        0.0000
     15 F15         8.9354    1.5142    1.6858 F       1  LIG1        0.0000
     16 F16         8.9501    2.8810   -0.0021 F       1  LIG1        0.0000
     17 C17         5.5425    1.7598   -0.9815 C.ar    1  LIG1        0.0000
     18 C18         4.1536    1.6930   -0.9640 C.ar    1  LIG1        0.0000
     19 C19         1.3780   -0.3316   -0.0185 C.2     1  LIG1        0.0000
     20 C20         1.9221   -1.7500   -0.0384 C.3     1  LIG1        0.0000
     21 H          -2.3370   -1.8261   -1.4216 H       1  LIG1        0.0000
     22 H          -1.7915   -0.3589   -1.8871 H       1  LIG1        0.0000
     23 H          -0.7885   -1.6475   -1.9084 H       1  LIG1        0.0000
     24 H          -1.8919   -0.4765    0.4892 H       1  LIG1        0.0000
     25 H          -0.8889   -1.7650    0.4678 H       1  LIG1        0.0000
     26 H          -2.0118    1.7447    0.0426 H       1  LIG1        0.0000
     27 H          -1.1775    2.8908    0.8531 H       1  LIG1        0.0000
     28 H          -1.2005    2.8990   -0.7797 H       1  LIG1        0.0000
     29 H           3.7734   -0.4462    1.5422 H       1  LIG1        0.0000
     30 H           6.1687   -0.3399    1.5220 H       1  LIG1        0.0000
     31 H           6.0128    2.3409   -1.6457 H       1  LIG1        0.0000
     32 H           3.6189    2.2278   -1.6183 H       1  LIG1        0.0000
     33 H           1.1613   -2.3990   -0.0334 H       1  LIG1        0.0000
     34 H           2.4702   -1.8852   -0.8638 H       1  LIG1        0.0000
     35 H           2.4930   -1.8994    0.7689 H       1  LIG1        0.0000
@<TRIPOS>BOND
     1     1     2    1
     2     2     3    1
     3     3     4    1
     4     4     5    1
     5     4     6    2
     6     6     7    1
     7     7     8    1
     8     8     9   ar
     9     9    10   ar
    10    10    11   ar
    11    11    12    1
    12    12    13    1
    13    13    14    1
    14    13    15    1
    15    13    16    1
    16    11    17   ar
    17    17    18   ar
    18    18     8   ar
    19     7    19    1
    20    19     3    2
    21    19    20    1
    22     1    21    1
    23     1    22    1
    24     1    23    1
    25     2    24    1
    26     2    25    1
    27     5    26    1
    28     5    27    1
    29     5    28    1
    30     9    29    1
    31    10    30    1
    32    17    31    1
    33    18    32    1
    34    20    33    1
    35    20    34    1
    36    20    35    1
