@<TRIPOS>MOLECULE

  33   35
SMALL
USER_CHARGES
@<TRIPOS>ATOM
   1 C1           3.7226    -0.7135    -0.0371 C.3          1    LIG   0.0000
   2 C2           2.3965     0.0295    -0.0208 C.ar         1    LIG   0.0000
   3 C3           2.3924     1.4208    -0.0117 C.ar         1    LIG   0.0000
   4 C4           1.1760     2.0948     0.0029 C.ar         1    LIG   0.0000
   5 C5          -0.0165     1.3779     0.0092 C.ar         1    LIG   0.0000
   6 N6          -1.2385     2.0615     0.0249 N.pl3        1    LIG   0.0000
   7 C7          -2.4425     1.3444     0.0313 C.ar         1    LIG   0.0000
   8 C8          -2.5468     0.2599     0.8947 C.ar         1    LIG   0.0000
   9 C9          -3.7212    -0.4838     0.9382 C.ar         1    LIG   0.0000
  10 C10         -4.7986    -0.1532     0.1228 C.ar         1    LIG   0.0000
  11 C11         -4.6848     0.9336    -0.7375 C.ar         1    LIG   0.0000
  12 C12         -5.7629     1.2621    -1.5526 C.ar         1    LIG   0.0000
  13 C13         -5.6865     2.3418    -2.4260 C.ar         1    LIG   0.0000
  14 C14         -4.5246     3.1030    -2.4906 C.ar         1    LIG   0.0000
  15 C15         -3.4539     2.7635    -1.6707 C.ar         1    LIG   0.0000
  16 C16         -3.5149     1.6863    -0.7907 C.ar         1    LIG   0.0000
  17 C17         -0.0122    -0.0130    -0.0008 C.ar         1    LIG   0.0000
  18 C18          1.2044    -0.6870    -0.0161 C.ar         1    LIG   0.0000
  19 H            3.5525    -1.6989    -0.0421 H            1    LIG   0.0000
  20 H            4.2367    -0.4599    -0.8565 H            1    LIG   0.0000
  21 H            4.2509    -0.4705     0.7764 H            1    LIG   0.0000
  22 H            3.2532     1.9298    -0.0157 H            1    LIG   0.0000
  23 H            1.1584     3.0946     0.0090 H            1    LIG   0.0000
  24 H           -1.2520     3.0614     0.0315 H            1    LIG   0.0000
  25 H           -1.7774     0.0146     1.4845 H            1    LIG   0.0000
  26 H           -3.7916    -1.2630     1.5611 H            1    LIG   0.0000
  27 H           -5.6424    -0.6890     0.1548 H            1    LIG   0.0000
  28 H           -6.6003     0.7172    -1.5102 H            1    LIG   0.0000
  29 H           -6.4672     2.5706    -3.0075 H            1    LIG   0.0000
  30 H           -4.4601     3.8809    -3.1157 H            1    LIG   0.0000
  31 H           -2.6166     3.3084    -1.7144 H            1    LIG   0.0000
  32 H           -0.8729    -0.5220     0.0030 H            1    LIG   0.0000
  33 H            1.2219    -1.6868    -0.0238 H            1    LIG   0.0000
@<TRIPOS>BOND
   1        1        2 1
   2        2        3 ar
   3        3        4 ar
   4        4        5 ar
   5        5        6 1
   6        6        7 1
   7        7        8 ar
   8        8        9 ar
   9        9       10 ar
  10       10       11 ar
  11       11       12 ar
  12       12       13 ar
  13       13       14 ar
  14       14       15 ar
  15       15       16 ar
  16       16        7 ar
  17       16       11 ar
  18        5       17 ar
  19       17       18 ar
  20       18        2 ar
  21        1       19 1
  22        1       20 1
  23        1       21 1
  24        3       22 1
  25        4       23 1
  26        6       24 1
  27        8       25 1
  28        9       26 1
  29       10       27 1
  30       12       28 1
  31       13       29 1
  32       14       30 1
  33       15       31 1
  34       17       32 1
  35       18       33 1

@<TRIPOS>MOLECULE

  33   35
SMALL
USER_CHARGES
@<TRIPOS>ATOM
   1 C1           3.7226    -0.7135    -0.0371 C.3          1    LIG   0.0000
   2 C2           2.3965     0.0295    -0.0208 C.ar         1    LIG   0.0000
   3 C3           2.3924     1.4208    -0.0117 C.ar         1    LIG   0.0000
   4 C4           1.1760     2.0948     0.0029 C.ar         1    LIG   0.0000
   5 C5          -0.0165     1.3779     0.0092 C.ar         1    LIG   0.0000
   6 N6          -1.2385     2.0615     0.0249 N.pl3        1    LIG   0.0000
   7 C7          -2.4425     1.3444     0.0313 C.ar         1    LIG   0.0000
   8 C8          -3.3240     1.5477    -1.0242 C.ar         1    LIG   0.0000
   9 C9          -4.5320     0.8597    -1.0637 C.ar         1    LIG   0.0000
  10 C10         -4.8704    -0.0343    -0.0531 C.ar         1    LIG   0.0000
  11 C11         -3.9819    -0.2312     0.9986 C.ar         1    LIG   0.0000
  12 C12         -4.3223    -1.1249     2.0085 C.ar         1    LIG   0.0000
  13 C13         -3.4598    -1.3478     3.0765 C.ar         1    LIG   0.0000
  14 C14         -2.2453    -0.6737     3.1419 C.ar         1    LIG   0.0000
  15 C15         -1.9173     0.2174     2.1260 C.ar         1    LIG   0.0000
  16 C16         -2.7694     0.4511     1.0500 C.ar         1    LIG   0.0000
  17 C17         -0.0122    -0.0130    -0.0008 C.ar         1    LIG   0.0000
  18 C18          1.2044    -0.6870    -0.0161 C.ar         1    LIG   0.0000
  19 H            3.5525    -1.6989    -0.0421 H            1    LIG   0.0000
  20 H            4.2367    -0.4599    -0.8565 H            1    LIG   0.0000
  21 H            4.2509    -0.4705     0.7764 H            1    LIG   0.0000
  22 H            3.2532     1.9298    -0.0157 H            1    LIG   0.0000
  23 H            1.1584     3.0946     0.0090 H            1    LIG   0.0000
  24 H           -1.2520     3.0614     0.0315 H            1    LIG   0.0000
  25 H           -3.0894     2.1886    -1.7551 H            1    LIG   0.0000
  26 H           -5.1628     1.0091    -1.8251 H            1    LIG   0.0000
  27 H           -5.7395    -0.5281    -0.0824 H            1    LIG   0.0000
  28 H           -5.1949    -1.6114     1.9662 H            1    LIG   0.0000
  29 H           -3.7130    -1.9929     3.7974 H            1    LIG   0.0000
  30 H           -1.6187    -0.8272     3.9060 H            1    LIG   0.0000
  31 H           -1.0449     0.7042     2.1696 H            1    LIG   0.0000
  32 H           -0.8729    -0.5220     0.0030 H            1    LIG   0.0000
  33 H            1.2219    -1.6868    -0.0238 H            1    LIG   0.0000
@<TRIPOS>BOND
   1        1        2 1
   2        2        3 ar
   3        3        4 ar
   4        4        5 ar
   5        5        6 1
   6        6        7 1
   7        7        8 ar
   8        8        9 ar
   9        9       10 ar
  10       10       11 ar
  11       11       12 ar
  12       12       13 ar
  13       13       14 ar
  14       14       15 ar
  15       15       16 ar
  16       16        7 ar
  17       16       11 ar
  18        5       17 ar
  19       17       18 ar
  20       18        2 ar
  21        1       19 1
  22        1       20 1
  23        1       21 1
  24        3       22 1
  25        4       23 1
  26        6       24 1
  27        8       25 1
  28        9       26 1
  29       10       27 1
  30       12       28 1
  31       13       29 1
  32       14       30 1
  33       15       31 1
  34       17       32 1
  35       18       33 1

@<TRIPOS>MOLECULE

  33   35
SMALL
USER_CHARGES
@<TRIPOS>ATOM
   1 C1           3.7226    -0.7135    -0.0371 C.3          1    LIG   0.0000
   2 C2           2.3965     0.0295    -0.0208 C.ar         1    LIG   0.0000
   3 C3           2.3924     1.4208    -0.0117 C.ar         1    LIG   0.0000
   4 C4           1.1760     2.0948     0.0029 C.ar         1    LIG   0.0000
   5 C5          -0.0165     1.3779     0.0092 C.ar         1    LIG   0.0000
   6 N6          -1.2385     2.0615     0.0249 N.pl3        1    LIG   0.0000
   7 C7          -2.4425     1.3444     0.0313 C.ar         1    LIG   0.0000
   8 C8          -3.3044     1.5338     1.1053 C.ar         1    LIG   0.0000
   9 C9          -4.5116     0.8452     1.1581 C.ar         1    LIG   0.0000
  10 C10         -4.8683    -0.0362     0.1426 C.ar         1    LIG   0.0000
  11 C11         -3.9994    -0.2188    -0.9279 C.ar         1    LIG   0.0000
  12 C12         -4.3574    -1.1011    -1.9418 C.ar         1    LIG   0.0000
  13 C13         -3.5146    -1.3102    -3.0282 C.ar         1    LIG   0.0000
  14 C14         -2.3014    -0.6352    -3.1070 C.ar         1    LIG   0.0000
  15 C15         -1.9552     0.2436    -2.0864 C.ar         1    LIG   0.0000
  16 C16         -2.7882     0.4644    -0.9928 C.ar         1    LIG   0.0000
  17 C17         -0.0122    -0.0130    -0.0008 C.ar         1    LIG   0.0000
  18 C18          1.2044    -0.6870    -0.0161 C.ar         1    LIG   0.0000
  19 H            3.5525    -1.6989    -0.0421 H            1    LIG   0.0000
  20 H            4.2367    -0.4599    -0.8565 H            1    LIG   0.0000
  21 H            4.2509    -0.4705     0.7764 H            1    LIG   0.0000
  22 H            3.2532     1.9298    -0.0157 H            1    LIG   0.0000
  23 H            1.1584     3.0946     0.0090 H            1    LIG   0.0000
  24 H           -1.2520     3.0614     0.0315 H            1    LIG   0.0000
  25 H           -3.0565     2.1652     1.8401 H            1    LIG   0.0000
  26 H           -5.1285     0.9849     1.9326 H            1    LIG   0.0000
  27 H           -5.7364    -0.5310     0.1818 H            1    LIG   0.0000
  28 H           -5.2285    -1.5894    -1.8892 H            1    LIG   0.0000
  29 H           -3.7811    -1.9459    -3.7526 H            1    LIG   0.0000
  30 H           -1.6885    -0.7793    -3.8840 H            1    LIG   0.0000
  31 H           -1.0835     0.7307    -2.1394 H            1    LIG   0.0000
  32 H           -0.8729    -0.5220     0.0030 H            1    LIG   0.0000
  33 H            1.2219    -1.6868    -0.0238 H            1    LIG   0.0000
@<TRIPOS>BOND
   1        1        2 1
   2        2        3 ar
   3        3        4 ar
   4        4        5 ar
   5        5        6 1
   6        6        7 1
   7        7        8 ar
   8        8        9 ar
   9        9       10 ar
  10       10       11 ar
  11       11       12 ar
  12       12       13 ar
  13       13       14 ar
  14       14       15 ar
  15       15       16 ar
  16       16        7 ar
  17       16       11 ar
  18        5       17 ar
  19       17       18 ar
  20       18        2 ar
  21        1       19 1
  22        1       20 1
  23        1       21 1
  24        3       22 1
  25        4       23 1
  26        6       24 1
  27        8       25 1
  28        9       26 1
  29       10       27 1
  30       12       28 1
  31       13       29 1
  32       14       30 1
  33       15       31 1
  34       17       32 1
  35       18       33 1

@<TRIPOS>MOLECULE

  33   35
SMALL
USER_CHARGES
@<TRIPOS>ATOM
   1 C1           3.7226    -0.7135    -0.0371 C.3          1    LIG   0.0000
   2 C2           2.3965     0.0295    -0.0208 C.ar         1    LIG   0.0000
   3 C3           2.3924     1.4208    -0.0117 C.ar         1    LIG   0.0000
   4 C4           1.1760     2.0948     0.0029 C.ar         1    LIG   0.0000
   5 C5          -0.0165     1.3779     0.0092 C.ar         1    LIG   0.0000
   6 N6          -1.2385     2.0615     0.0249 N.pl3        1    LIG   0.0000
   7 C7          -2.4425     1.3444     0.0313 C.ar         1    LIG   0.0000
   8 C8          -2.6949     0.4913    -1.0369 C.ar         1    LIG   0.0000
   9 C9          -3.8757    -0.2424    -1.0769 C.ar         1    LIG   0.0000
  10 C10         -4.8126    -0.1315    -0.0547 C.ar         1    LIG   0.0000
  11 C11         -4.5510     0.7245     1.0099 C.ar         1    LIG   0.0000
  12 C12         -5.4893     0.8346     2.0306 C.ar         1    LIG   0.0000
  13 C13         -5.2632     1.6804     3.1113 C.ar         1    LIG   0.0000
  14 C14         -4.0913     2.4260     3.1775 C.ar         1    LIG   0.0000
  15 C15         -3.1618     2.3070     2.1502 C.ar         1    LIG   0.0000
  16 C16         -3.3729     1.4644     1.0621 C.ar         1    LIG   0.0000
  17 C17         -0.0122    -0.0130    -0.0008 C.ar         1    LIG   0.0000
  18 C18          1.2044    -0.6870    -0.0161 C.ar         1    LIG   0.0000
  19 H            3.5525    -1.6989    -0.0421 H            1    LIG   0.0000
  20 H            4.2367    -0.4599    -0.8565 H            1    LIG   0.0000
  21 H            4.2509    -0.4705     0.7764 H            1    LIG   0.0000
  22 H            3.2532     1.9298    -0.0157 H            1    LIG   0.0000
  23 H            1.1584     3.0946     0.0090 H            1    LIG   0.0000
  24 H           -1.2520     3.0614     0.0315 H            1    LIG   0.0000
  25 H           -2.0274     0.4051    -1.7765 H            1    LIG   0.0000
  26 H           -4.0527    -0.8549    -1.8473 H            1    LIG   0.0000
  27 H           -5.6614    -0.6592    -0.0848 H            1    LIG   0.0000
  28 H           -6.3339     0.3011     1.9871 H            1    LIG   0.0000
  29 H           -5.9435     1.7523     3.8408 H            1    LIG   0.0000
  30 H           -3.9200     3.0371     3.9504 H            1    LIG   0.0000
  31 H           -2.3179     2.8417     2.1941 H            1    LIG   0.0000
  32 H           -0.8729    -0.5220     0.0030 H            1    LIG   0.0000
  33 H            1.2219    -1.6868    -0.0238 H            1    LIG   0.0000
@<TRIPOS>BOND
   1        1        2 1
   2        2        3 ar
   3        3        4 ar
   4        4        5 ar
   5        5        6 1
   6        6        7 1
   7        7        8 ar
   8        8        9 ar
   9        9       10 ar
  10       10       11 ar
  11       11       12 ar
  12       12       13 ar
  13       13       14 ar
  14       14       15 ar
  15       15       16 ar
  16       16        7 ar
  17       16       11 ar
  18        5       17 ar
  19       17       18 ar
  20       18        2 ar
  21        1       19 1
  22        1       20 1
  23        1       21 1
  24        3       22 1
  25        4       23 1
  26        6       24 1
  27        8       25 1
  28        9       26 1
  29       10       27 1
  30       12       28 1
  31       13       29 1
  32       14       30 1
  33       15       31 1
  34       17       32 1
  35       18       33 1

@<TRIPOS>MOLECULE

  33   35
SMALL
USER_CHARGES
@<TRIPOS>ATOM
   1 C1           3.7226    -0.7135    -0.0371 C.3          1    LIG   0.0000
   2 C2           2.3965     0.0295    -0.0208 C.ar         1    LIG   0.0000
   3 C3           2.3924     1.4208    -0.0117 C.ar         1    LIG   0.0000
   4 C4           1.1760     2.0948     0.0029 C.ar         1    LIG   0.0000
   5 C5          -0.0165     1.3779     0.0092 C.ar         1    LIG   0.0000
   6 N6          -1.2385     2.0615     0.0249 N.pl3        1    LIG   0.0000
   7 C7          -2.3111     1.5972    -0.7485 C.ar         1    LIG   0.0000
   8 C8          -2.0377     0.6659    -1.7436 C.ar         1    LIG   0.0000
   9 C9          -3.0680     0.1746    -2.5381 C.ar         1    LIG   0.0000
  10 C10         -4.3763     0.6071    -2.3475 C.ar         1    LIG   0.0000
  11 C11         -4.6398     1.5389    -1.3492 C.ar         1    LIG   0.0000
  12 C12         -5.9484     1.9708    -1.1607 C.ar         1    LIG   0.0000
  13 C13         -6.2509     2.9019    -0.1728 C.ar         1    LIG   0.0000
  14 C14         -5.2407     3.4102     0.6364 C.ar         1    LIG   0.0000
  15 C15         -3.9366     2.9705     0.4370 C.ar         1    LIG   0.0000
  16 C16         -3.6176     2.0386    -0.5470 C.ar         1    LIG   0.0000
  17 C17         -0.0122    -0.0130    -0.0008 C.ar         1    LIG   0.0000
  18 C18          1.2044    -0.6870    -0.0161 C.ar         1    LIG   0.0000
  19 H            3.5525    -1.6989    -0.0421 H            1    LIG   0.0000
  20 H            4.2367    -0.4599    -0.8565 H            1    LIG   0.0000
  21 H            4.2509    -0.4705     0.7764 H            1    LIG   0.0000
  22 H            3.2532     1.9298    -0.0157 H            1    LIG   0.0000
  23 H            1.1584     3.0946     0.0090 H            1    LIG   0.0000
  24 H           -1.3458     2.8809     0.5879 H            1    LIG   0.0000
  25 H           -1.1003     0.3492    -1.8882 H            1    LIG   0.0000
  26 H           -2.8666    -0.4955    -3.2526 H            1    LIG   0.0000
  27 H           -5.1162     0.2534    -2.9197 H            1    LIG   0.0000
  28 H           -6.6782     1.6087    -1.7405 H            1    LIG   0.0000
  29 H           -7.1950     3.2057    -0.0443 H            1    LIG   0.0000
  30 H           -5.4483     4.0803     1.3490 H            1    LIG   0.0000
  31 H           -3.2073     3.3339     1.0168 H            1    LIG   0.0000
  32 H           -0.8729    -0.5220     0.0030 H            1    LIG   0.0000
  33 H            1.2219    -1.6868    -0.0238 H            1    LIG   0.0000
@<TRIPOS>BOND
   1        1        2 1
   2        2        3 ar
   3        3        4 ar
   4        4        5 ar
   5        5        6 1
   6        6        7 1
   7        7        8 ar
   8        8        9 ar
   9        9       10 ar
  10       10       11 ar
  11       11       12 ar
  12       12       13 ar
  13       13       14 ar
  14       14       15 ar
  15       15       16 ar
  16       16        7 ar
  17       16       11 ar
  18        5       17 ar
  19       17       18 ar
  20       18        2 ar
  21        1       19 1
  22        1       20 1
  23        1       21 1
  24        3       22 1
  25        4       23 1
  26        6       24 1
  27        8       25 1
  28        9       26 1
  29       10       27 1
  30       12       28 1
  31       13       29 1
  32       14       30 1
  33       15       31 1
  34       17       32 1
  35       18       33 1

@<TRIPOS>MOLECULE

  33   35
SMALL
USER_CHARGES
@<TRIPOS>ATOM
   1 C1           3.7226    -0.7135    -0.0371 C.3          1    LIG   0.0000
   2 C2           2.3965     0.0295    -0.0208 C.ar         1    LIG   0.0000
   3 C3           2.3924     1.4208    -0.0117 C.ar         1    LIG   0.0000
   4 C4           1.1760     2.0948     0.0029 C.ar         1    LIG   0.0000
   5 C5          -0.0165     1.3779     0.0092 C.ar         1    LIG   0.0000
   6 N6          -1.2385     2.0615     0.0249 N.pl3        1    LIG   0.0000
   7 C7          -2.3111     1.5972    -0.7485 C.ar         1    LIG   0.0000
   8 C8          -2.2629     1.8144    -2.1207 C.ar         1    LIG   0.0000
   9 C9          -3.3030     1.3728    -2.9315 C.ar         1    LIG   0.0000
  10 C10         -4.3972     0.7127    -2.3819 C.ar         1    LIG   0.0000
  11 C11         -4.4362     0.5000    -1.0080 C.ar         1    LIG   0.0000
  12 C12         -5.5315    -0.1594    -0.4602 C.ar         1    LIG   0.0000
  13 C13         -5.6062    -0.3902     0.9092 C.ar         1    LIG   0.0000
  14 C14         -4.5808     0.0405     1.7439 C.ar         1    LIG   0.0000
  15 C15         -3.4917     0.6989     1.1836 C.ar         1    LIG   0.0000
  16 C16         -3.4016     0.9369    -0.1853 C.ar         1    LIG   0.0000
  17 C17         -0.0122    -0.0130    -0.0008 C.ar         1    LIG   0.0000
  18 C18          1.2044    -0.6870    -0.0161 C.ar         1    LIG   0.0000
  19 H            3.5525    -1.6989    -0.0421 H            1    LIG   0.0000
  20 H            4.2367    -0.4599    -0.8565 H            1    LIG   0.0000
  21 H            4.2509    -0.4705     0.7764 H            1    LIG   0.0000
  22 H            3.2532     1.9298    -0.0157 H            1    LIG   0.0000
  23 H            1.1584     3.0946     0.0090 H            1    LIG   0.0000
  24 H           -1.3458     2.8809     0.5879 H            1    LIG   0.0000
  25 H           -1.4804     2.2881    -2.5248 H            1    LIG   0.0000
  26 H           -3.2638     1.5310    -3.9181 H            1    LIG   0.0000
  27 H           -5.1447     0.3960    -2.9659 H            1    LIG   0.0000
  28 H           -6.2718    -0.4702    -1.0563 H            1    LIG   0.0000
  29 H           -6.3974    -0.8658     1.2937 H            1    LIG   0.0000
  30 H           -4.6257    -0.1206     2.7299 H            1    LIG   0.0000
  31 H           -2.7523     1.0103     1.7806 H            1    LIG   0.0000
  32 H           -0.8729    -0.5220     0.0030 H            1    LIG   0.0000
  33 H            1.2219    -1.6868    -0.0238 H            1    LIG   0.0000
@<TRIPOS>BOND
   1        1        2 1
   2        2        3 ar
   3        3        4 ar
   4        4        5 ar
   5        5        6 1
   6        6        7 1
   7        7        8 ar
   8        8        9 ar
   9        9       10 ar
  10       10       11 ar
  11       11       12 ar
  12       12       13 ar
  13       13       14 ar
  14       14       15 ar
  15       15       16 ar
  16       16        7 ar
  17       16       11 ar
  18        5       17 ar
  19       17       18 ar
  20       18        2 ar
  21        1       19 1
  22        1       20 1
  23        1       21 1
  24        3       22 1
  25        4       23 1
  26        6       24 1
  27        8       25 1
  28        9       26 1
  29       10       27 1
  30       12       28 1
  31       13       29 1
  32       14       30 1
  33       15       31 1
  34       17       32 1
  35       18       33 1

@<TRIPOS>MOLECULE

  33   35
SMALL
USER_CHARGES
@<TRIPOS>ATOM
   1 C1           3.7226    -0.7135    -0.0371 C.3          1    LIG   0.0000
   2 C2           2.3965     0.0295    -0.0208 C.ar         1    LIG   0.0000
   3 C3           2.3924     1.4208    -0.0117 C.ar         1    LIG   0.0000
   4 C4           1.1760     2.0948     0.0029 C.ar         1    LIG   0.0000
   5 C5          -0.0165     1.3779     0.0092 C.ar         1    LIG   0.0000
   6 N6          -1.2385     2.0615     0.0249 N.pl3        1    LIG   0.0000
   7 C7          -2.1366     1.8671     1.0830 C.ar         1    LIG   0.0000
   8 C8          -2.0289     0.6918     1.8174 C.ar         1    LIG   0.0000
   9 C9          -2.8969     0.4520     2.8772 C.ar         1    LIG   0.0000
  10 C10         -3.8774     1.3801     3.2126 C.ar         1    LIG   0.0000
  11 C11         -3.9771     2.5531     2.4721 C.ar         1    LIG   0.0000
  12 C12         -4.9586     3.4795     2.8083 C.ar         1    LIG   0.0000
  13 C13         -5.0894     4.6638     2.0910 C.ar         1    LIG   0.0000
  14 C14         -4.2353     4.9298     1.0263 C.ar         1    LIG   0.0000
  15 C15         -3.2587     3.9950     0.7002 C.ar         1    LIG   0.0000
  16 C16         -3.1144     2.8053     1.4089 C.ar         1    LIG   0.0000
  17 C17         -0.0122    -0.0130    -0.0008 C.ar         1    LIG   0.0000
  18 C18          1.2044    -0.6870    -0.0161 C.ar         1    LIG   0.0000
  19 H            3.5525    -1.6989    -0.0421 H            1    LIG   0.0000
  20 H            4.2367    -0.4599    -0.8565 H            1    LIG   0.0000
  21 H            4.2509    -0.4705     0.7764 H            1    LIG   0.0000
  22 H            3.2532     1.9298    -0.0157 H            1    LIG   0.0000
  23 H            1.1584     3.0946     0.0090 H            1    LIG   0.0000
  24 H           -1.4703     2.6884    -0.7189 H            1    LIG   0.0000
  25 H           -1.3273     0.0186     1.5836 H            1    LIG   0.0000
  26 H           -2.8155    -0.3948     3.4028 H            1    LIG   0.0000
  27 H           -4.5012     1.2064     3.9746 H            1    LIG   0.0000
  28 H           -5.5757     3.2923     3.5727 H            1    LIG   0.0000
  29 H           -5.7977     5.3240     2.3408 H            1    LIG   0.0000
  30 H           -4.3218     5.7783     0.5044 H            1    LIG   0.0000
  31 H           -2.6427     4.1826    -0.0649 H            1    LIG   0.0000
  32 H           -0.8729    -0.5220     0.0030 H            1    LIG   0.0000
  33 H            1.2219    -1.6868    -0.0238 H            1    LIG   0.0000
@<TRIPOS>BOND
   1        1        2 1
   2        2        3 ar
   3        3        4 ar
   4        4        5 ar
   5        5        6 1
   6        6        7 1
   7        7        8 ar
   8        8        9 ar
   9        9       10 ar
  10       10       11 ar
  11       11       12 ar
  12       12       13 ar
  13       13       14 ar
  14       14       15 ar
  15       15       16 ar
  16       16        7 ar
  17       16       11 ar
  18        5       17 ar
  19       17       18 ar
  20       18        2 ar
  21        1       19 1
  22        1       20 1
  23        1       21 1
  24        3       22 1
  25        4       23 1
  26        6       24 1
  27        8       25 1
  28        9       26 1
  29       10       27 1
  30       12       28 1
  31       13       29 1
  32       14       30 1
  33       15       31 1
  34       17       32 1
  35       18       33 1

@<TRIPOS>MOLECULE

  33   35
SMALL
USER_CHARGES
@<TRIPOS>ATOM
   1 C1           3.7226    -0.7135    -0.0371 C.3          1    LIG   0.0000
   2 C2           2.3965     0.0295    -0.0208 C.ar         1    LIG   0.0000
   3 C3           2.3924     1.4208    -0.0117 C.ar         1    LIG   0.0000
   4 C4           1.1760     2.0948     0.0029 C.ar         1    LIG   0.0000
   5 C5          -0.0165     1.3779     0.0092 C.ar         1    LIG   0.0000
   6 N6          -1.2385     2.0615     0.0249 N.pl3        1    LIG   0.0000
   7 C7          -2.1366     1.8671     1.0830 C.ar         1    LIG   0.0000
   8 C8          -1.6262     1.8718     2.3760 C.ar         1    LIG   0.0000
   9 C9          -2.4767     1.6831     3.4600 C.ar         1    LIG   0.0000
  10 C10         -3.8400     1.4884     3.2641 C.ar         1    LIG   0.0000
  11 C11         -4.3413     1.4856     1.9668 C.ar         1    LIG   0.0000
  12 C12         -5.7046     1.2900     1.7729 C.ar         1    LIG   0.0000
  13 C13         -6.2428     1.2804     0.4905 C.ar         1    LIG   0.0000
  14 C14         -5.4159     1.4665    -0.6120 C.ar         1    LIG   0.0000
  15 C15         -4.0547     1.6605    -0.4042 C.ar         1    LIG   0.0000
  16 C16         -3.5008     1.6734     0.8731 C.ar         1    LIG   0.0000
  17 C17         -0.0122    -0.0130    -0.0008 C.ar         1    LIG   0.0000
  18 C18          1.2044    -0.6870    -0.0161 C.ar         1    LIG   0.0000
  19 H            3.5525    -1.6989    -0.0421 H            1    LIG   0.0000
  20 H            4.2367    -0.4599    -0.8565 H            1    LIG   0.0000
  21 H            4.2509    -0.4705     0.7764 H            1    LIG   0.0000
  22 H            3.2532     1.9298    -0.0157 H            1    LIG   0.0000
  23 H            1.1584     3.0946     0.0090 H            1    LIG   0.0000
  24 H           -1.4703     2.6884    -0.7189 H            1    LIG   0.0000
  25 H           -0.6474     2.0108     2.5267 H            1    LIG   0.0000
  26 H           -2.1049     1.6874     4.3884 H            1    LIG   0.0000
  27 H           -4.4506     1.3524     4.0444 H            1    LIG   0.0000
  28 H           -6.3032     1.1549     2.5625 H            1    LIG   0.0000
  29 H           -7.2244     1.1398     0.3612 H            1    LIG   0.0000
  30 H           -5.7936     1.4609    -1.5379 H            1    LIG   0.0000
  31 H           -3.4568     1.7945    -1.1945 H            1    LIG   0.0000
  32 H           -0.8729    -0.5220     0.0030 H            1    LIG   0.0000
  33 H            1.2219    -1.6868    -0.0238 H            1    LIG   0.0000
@<TRIPOS>BOND
   1        1        2 1
   2        2        3 ar
   3        3        4 ar
   4        4        5 ar
   5        5        6 1
   6        6        7 1
   7        7        8 ar
   8        8        9 ar
   9        9       10 ar
  10       10       11 ar
  11       11       12 ar
  12       12       13 ar
  13       13       14 ar
  14       14       15 ar
  15       15       16 ar
  16       16        7 ar
  17       16       11 ar
  18        5       17 ar
  19       17       18 ar
  20       18        2 ar
  21        1       19 1
  22        1       20 1
  23        1       21 1
  24        3       22 1
  25        4       23 1
  26        6       24 1
  27        8       25 1
  28        9       26 1
  29       10       27 1
  30       12       28 1
  31       13       29 1
  32       14       30 1
  33       15       31 1
  34       17       32 1
  35       18       33 1

@<TRIPOS>MOLECULE

  33   35
SMALL
USER_CHARGES
@<TRIPOS>ATOM
   1 C1           3.7226    -0.7135    -0.0371 C.3          1    LIG   0.0000
   2 C2           2.3965     0.0295    -0.0208 C.ar         1    LIG   0.0000
   3 C3           2.3924     1.4208    -0.0117 C.ar         1    LIG   0.0000
   4 C4           1.1760     2.0948     0.0029 C.ar         1    LIG   0.0000
   5 C5          -0.0165     1.3779     0.0092 C.ar         1    LIG   0.0000
   6 N6          -1.2385     2.0615     0.0249 N.pl3        1    LIG   0.0000
   7 C7          -2.1366     1.8671     1.0830 C.ar         1    LIG   0.0000
   8 C8          -3.3993     1.3716     0.7791 C.ar         1    LIG   0.0000
   9 C9          -4.3266     1.1614     1.7940 C.ar         1    LIG   0.0000
  10 C10         -4.0033     1.4431     3.1173 C.ar         1    LIG   0.0000
  11 C11         -2.7373     1.9383     3.4114 C.ar         1    LIG   0.0000
  12 C12         -2.4161     2.2201     4.7350 C.ar         1    LIG   0.0000
  13 C13         -1.1605     2.7168     5.0682 C.ar         1    LIG   0.0000
  14 C14         -0.2136     2.9368     4.0738 C.ar         1    LIG   0.0000
  15 C15         -0.5477     2.6514     2.7545 C.ar         1    LIG   0.0000
  16 C16         -1.7999     2.1532     2.4049 C.ar         1    LIG   0.0000
  17 C17         -0.0122    -0.0130    -0.0008 C.ar         1    LIG   0.0000
  18 C18          1.2044    -0.6870    -0.0161 C.ar         1    LIG   0.0000
  19 H            3.5525    -1.6989    -0.0421 H            1    LIG   0.0000
  20 H            4.2367    -0.4599    -0.8565 H            1    LIG   0.0000
  21 H            4.2509    -0.4705     0.7764 H            1    LIG   0.0000
  22 H            3.2532     1.9298    -0.0157 H            1    LIG   0.0000
  23 H            1.1584     3.0946     0.0090 H            1    LIG   0.0000
  24 H           -1.4703     2.6884    -0.7189 H            1    LIG   0.0000
  25 H           -3.6409     1.1664    -0.1693 H            1    LIG   0.0000
  26 H           -5.2337     0.8046     1.5705 H            1    LIG   0.0000
  27 H           -4.6710     1.2918     3.8462 H            1    LIG   0.0000
  28 H           -3.0940     2.0643     5.4535 H            1    LIG   0.0000
  29 H           -0.9386     2.9157     6.0227 H            1    LIG   0.0000
  30 H            0.6918     3.2940     4.3035 H            1    LIG   0.0000
  31 H            0.1305     2.8085     2.0366 H            1    LIG   0.0000
  32 H           -0.8729    -0.5220     0.0030 H            1    LIG   0.0000
  33 H            1.2219    -1.6868    -0.0238 H            1    LIG   0.0000
@<TRIPOS>BOND
   1        1        2 1
   2        2        3 ar
   3        3        4 ar
   4        4        5 ar
   5        5        6 1
   6        6        7 1
   7        7        8 ar
   8        8        9 ar
   9        9       10 ar
  10       10       11 ar
  11       11       12 ar
  12       12       13 ar
  13       13       14 ar
  14       14       15 ar
  15       15       16 ar
  16       16        7 ar
  17       16       11 ar
  18        5       17 ar
  19       17       18 ar
  20       18        2 ar
  21        1       19 1
  22        1       20 1
  23        1       21 1
  24        3       22 1
  25        4       23 1
  26        6       24 1
  27        8       25 1
  28        9       26 1
  29       10       27 1
  30       12       28 1
  31       13       29 1
  32       14       30 1
  33       15       31 1
  34       17       32 1
  35       18       33 1

@<TRIPOS>MOLECULE

  33   35
SMALL
USER_CHARGES
@<TRIPOS>ATOM
   1 C1           3.7226    -0.7135    -0.0371 C.3          1    LIG   0.0000
   2 C2           2.3965     0.0295    -0.0208 C.ar         1    LIG   0.0000
   3 C3           2.3924     1.4208    -0.0117 C.ar         1    LIG   0.0000
   4 C4           1.1760     2.0948     0.0029 C.ar         1    LIG   0.0000
   5 C5          -0.0165     1.3779     0.0092 C.ar         1    LIG   0.0000
   6 N6          -1.2385     2.0615     0.0249 N.pl3        1    LIG   0.0000
   7 C7          -2.1366     1.8671     1.0830 C.ar         1    LIG   0.0000
   8 C8          -3.0777     0.8519     0.9566 C.ar         1    LIG   0.0000
   9 C9          -3.9911     0.6191     1.9792 C.ar         1    LIG   0.0000
  10 C10         -3.9738     1.3952     3.1335 C.ar         1    LIG   0.0000
  11 C11         -3.0283     2.4084     3.2508 C.ar         1    LIG   0.0000
  12 C12         -3.0131     3.1839     4.4053 C.ar         1    LIG   0.0000
  13 C13         -2.0829     4.2063     4.5588 C.ar         1    LIG   0.0000
  14 C14         -1.1578     4.4615     3.5525 C.ar         1    LIG   0.0000
  15 C15         -1.1842     3.6793     2.4031 C.ar         1    LIG   0.0000
  16 C16         -2.1084     2.6517     2.2346 C.ar         1    LIG   0.0000
  17 C17         -0.0122    -0.0130    -0.0008 C.ar         1    LIG   0.0000
  18 C18          1.2044    -0.6870    -0.0161 C.ar         1    LIG   0.0000
  19 H            3.5525    -1.6989    -0.0421 H            1    LIG   0.0000
  20 H            4.2367    -0.4599    -0.8565 H            1    LIG   0.0000
  21 H            4.2509    -0.4705     0.7764 H            1    LIG   0.0000
  22 H            3.2532     1.9298    -0.0157 H            1    LIG   0.0000
  23 H            1.1584     3.0946     0.0090 H            1    LIG   0.0000
  24 H           -1.4703     2.6884    -0.7189 H            1    LIG   0.0000
  25 H           -3.0979     0.2889     0.1304 H            1    LIG   0.0000
  26 H           -4.6661    -0.1125     1.8838 H            1    LIG   0.0000
  27 H           -4.6313     1.2271     3.8680 H            1    LIG   0.0000
  28 H           -3.6769     3.0047     5.1315 H            1    LIG   0.0000
  29 H           -2.0793     4.7580     5.3929 H            1    LIG   0.0000
  30 H           -0.4853     5.1947     3.6536 H            1    LIG   0.0000
  31 H           -0.5206     3.8598     1.6771 H            1    LIG   0.0000
  32 H           -0.8729    -0.5220     0.0030 H            1    LIG   0.0000
  33 H            1.2219    -1.6868    -0.0238 H            1    LIG   0.0000
@<TRIPOS>BOND
   1        1        2 1
   2        2        3 ar
   3        3        4 ar
   4        4        5 ar
   5        5        6 1
   6        6        7 1
   7        7        8 ar
   8        8        9 ar
   9        9       10 ar
  10       10       11 ar
  11       11       12 ar
  12       12       13 ar
  13       13       14 ar
  14       14       15 ar
  15       15       16 ar
  16       16        7 ar
  17       16       11 ar
  18        5       17 ar
  19       17       18 ar
  20       18        2 ar
  21        1       19 1
  22        1       20 1
  23        1       21 1
  24        3       22 1
  25        4       23 1
  26        6       24 1
  27        8       25 1
  28        9       26 1
  29       10       27 1
  30       12       28 1
  31       13       29 1
  32       14       30 1
  33       15       31 1
  34       17       32 1
  35       18       33 1

@<TRIPOS>MOLECULE

  33   35
SMALL
USER_CHARGES
@<TRIPOS>ATOM
   1 C1           3.7226    -0.7135    -0.0371 C.3          1    LIG   0.0000
   2 C2           2.3965     0.0295    -0.0208 C.ar         1    LIG   0.0000
   3 C3           2.3924     1.4208    -0.0117 C.ar         1    LIG   0.0000
   4 C4           1.1760     2.0948     0.0029 C.ar         1    LIG   0.0000
   5 C5          -0.0165     1.3779     0.0092 C.ar         1    LIG   0.0000
   6 N6          -1.2385     2.0615     0.0249 N.pl3        1    LIG   0.0000
   7 C7          -2.1559     1.8808    -1.0190 C.ar         1    LIG   0.0000
   8 C8          -2.0618     0.7151    -1.7705 C.ar         1    LIG   0.0000
   9 C9          -2.9491     0.4891    -2.8173 C.ar         1    LIG   0.0000
  10 C10         -3.9351     1.4217    -3.1229 C.ar         1    LIG   0.0000
  11 C11         -4.0213     2.5847    -2.3652 C.ar         1    LIG   0.0000
  12 C12         -5.0073     3.5163    -2.6727 C.ar         1    LIG   0.0000
  13 C13         -5.1246     4.6913    -1.9379 C.ar         1    LIG   0.0000
  14 C14         -4.2510     4.9435    -0.8858 C.ar         1    LIG   0.0000
  15 C15         -3.2695     4.0042    -0.5891 C.ar         1    LIG   0.0000
  16 C16         -3.1394     2.8230    -1.3146 C.ar         1    LIG   0.0000
  17 C17         -0.0122    -0.0130    -0.0008 C.ar         1    LIG   0.0000
  18 C18          1.2044    -0.6870    -0.0161 C.ar         1    LIG   0.0000
  19 H            3.5525    -1.6989    -0.0421 H            1    LIG   0.0000
  20 H            4.2367    -0.4599    -0.8565 H            1    LIG   0.0000
  21 H            4.2509    -0.4705     0.7764 H            1    LIG   0.0000
  22 H            3.2532     1.9298    -0.0157 H            1    LIG   0.0000
  23 H            1.1584     3.0946     0.0090 H            1    LIG   0.0000
  24 H           -1.4565     2.6786     0.7810 H            1    LIG   0.0000
  25 H           -1.3562     0.0391    -1.5584 H            1    LIG   0.0000
  26 H           -2.8777    -0.3510    -3.3550 H            1    LIG   0.0000
  27 H           -4.5722     1.2582    -3.8761 H            1    LIG   0.0000
  28 H           -5.6373     3.3397    -3.4289 H            1    LIG   0.0000
  29 H           -5.8372     5.3547    -2.1661 H            1    LIG   0.0000
  30 H           -4.3273     5.7856    -0.3519 H            1    LIG   0.0000
  31 H           -2.6393     4.1821     0.1667 H            1    LIG   0.0000
  32 H           -0.8729    -0.5220     0.0030 H            1    LIG   0.0000
  33 H            1.2219    -1.6868    -0.0238 H            1    LIG   0.0000
@<TRIPOS>BOND
   1        1        2 1
   2        2        3 ar
   3        3        4 ar
   4        4        5 ar
   5        5        6 1
   6        6        7 1
   7        7        8 ar
   8        8        9 ar
   9        9       10 ar
  10       10       11 ar
  11       11       12 ar
  12       12       13 ar
  13       13       14 ar
  14       14       15 ar
  15       15       16 ar
  16       16        7 ar
  17       16       11 ar
  18        5       17 ar
  19       17       18 ar
  20       18        2 ar
  21        1       19 1
  22        1       20 1
  23        1       21 1
  24        3       22 1
  25        4       23 1
  26        6       24 1
  27        8       25 1
  28        9       26 1
  29       10       27 1
  30       12       28 1
  31       13       29 1
  32       14       30 1
  33       15       31 1
  34       17       32 1
  35       18       33 1

@<TRIPOS>MOLECULE

  33   35
SMALL
USER_CHARGES
@<TRIPOS>ATOM
   1 C1           3.7226    -0.7135    -0.0371 C.3          1    LIG   0.0000
   2 C2           2.3965     0.0295    -0.0208 C.ar         1    LIG   0.0000
   3 C3           2.3924     1.4208    -0.0117 C.ar         1    LIG   0.0000
   4 C4           1.1760     2.0948     0.0029 C.ar         1    LIG   0.0000
   5 C5          -0.0165     1.3779     0.0092 C.ar         1    LIG   0.0000
   6 N6          -1.2385     2.0615     0.0249 N.pl3        1    LIG   0.0000
   7 C7          -2.1559     1.8808    -1.0190 C.ar         1    LIG   0.0000
   8 C8          -2.8767     0.6926    -1.0504 C.ar         1    LIG   0.0000
   9 C9          -3.7992     0.4656    -2.0661 C.ar         1    LIG   0.0000
  10 C10         -4.0099     1.4193    -3.0567 C.ar         1    LIG   0.0000
  11 C11         -3.2842     2.6050    -3.0165 C.ar         1    LIG   0.0000
  12 C12         -3.4956     3.5570    -4.0083 C.ar         1    LIG   0.0000
  13 C13         -2.7885     4.7546    -4.0018 C.ar         1    LIG   0.0000
  14 C14         -1.8597     5.0083    -2.9985 C.ar         1    LIG   0.0000
  15 C15         -1.6575     4.0480    -2.0133 C.ar         1    LIG   0.0000
  16 C16         -2.3578     2.8446    -2.0053 C.ar         1    LIG   0.0000
  17 C17         -0.0122    -0.0130    -0.0008 C.ar         1    LIG   0.0000
  18 C18          1.2044    -0.6870    -0.0161 C.ar         1    LIG   0.0000
  19 H            3.5525    -1.6989    -0.0421 H            1    LIG   0.0000
  20 H            4.2367    -0.4599    -0.8565 H            1    LIG   0.0000
  21 H            4.2509    -0.4705     0.7764 H            1    LIG   0.0000
  22 H            3.2532     1.9298    -0.0157 H            1    LIG   0.0000
  23 H            1.1584     3.0946     0.0090 H            1    LIG   0.0000
  24 H           -1.4565     2.6786     0.7810 H            1    LIG   0.0000
  25 H           -2.7319     0.0011    -0.3428 H            1    LIG   0.0000
  26 H           -4.3156    -0.3906    -2.0844 H            1    LIG   0.0000
  27 H           -4.6733     1.2547    -3.7867 H            1    LIG   0.0000
  28 H           -4.1619     3.3787    -4.7323 H            1    LIG   0.0000
  29 H           -2.9480     5.4332    -4.7188 H            1    LIG   0.0000
  30 H           -1.3463     5.8663    -2.9857 H            1    LIG   0.0000
  31 H           -0.9903     4.2267    -1.2902 H            1    LIG   0.0000
  32 H           -0.8729    -0.5220     0.0030 H            1    LIG   0.0000
  33 H            1.2219    -1.6868    -0.0238 H            1    LIG   0.0000
@<TRIPOS>BOND
   1        1        2 1
   2        2        3 ar
   3        3        4 ar
   4        4        5 ar
   5        5        6 1
   6        6        7 1
   7        7        8 ar
   8        8        9 ar
   9        9       10 ar
  10       10       11 ar
  11       11       12 ar
  12       12       13 ar
  13       13       14 ar
  14       14       15 ar
  15       15       16 ar
  16       16        7 ar
  17       16       11 ar
  18        5       17 ar
  19       17       18 ar
  20       18        2 ar
  21        1       19 1
  22        1       20 1
  23        1       21 1
  24        3       22 1
  25        4       23 1
  26        6       24 1
  27        8       25 1
  28        9       26 1
  29       10       27 1
  30       12       28 1
  31       13       29 1
  32       14       30 1
  33       15       31 1
  34       17       32 1
  35       18       33 1

@<TRIPOS>MOLECULE

  33   35
SMALL
USER_CHARGES
@<TRIPOS>ATOM
   1 C1           3.7226    -0.7135    -0.0371 C.3          1    LIG   0.0000
   2 C2           2.3965     0.0295    -0.0208 C.ar         1    LIG   0.0000
   3 C3           2.3924     1.4208    -0.0117 C.ar         1    LIG   0.0000
   4 C4           1.1760     2.0948     0.0029 C.ar         1    LIG   0.0000
   5 C5          -0.0165     1.3779     0.0092 C.ar         1    LIG   0.0000
   6 N6          -1.2385     2.0615     0.0249 N.pl3        1    LIG   0.0000
   7 C7          -2.1559     1.8808    -1.0190 C.ar         1    LIG   0.0000
   8 C8          -3.4129     1.3813    -0.6984 C.ar         1    LIG   0.0000
   9 C9          -4.3587     1.1840    -1.6988 C.ar         1    LIG   0.0000
  10 C10         -4.0594     1.4824    -3.0241 C.ar         1    LIG   0.0000
  11 C11         -2.7992     1.9820    -3.3349 C.ar         1    LIG   0.0000
  12 C12         -2.5015     2.2789    -4.6607 C.ar         1    LIG   0.0000
  13 C13         -1.2520     2.7798    -5.0104 C.ar         1    LIG   0.0000
  14 C14         -0.2870     2.9869    -4.0308 C.ar         1    LIG   0.0000
  15 C15         -0.5973     2.6854    -2.7093 C.ar         1    LIG   0.0000
  16 C16         -1.8435     2.1841    -2.3430 C.ar         1    LIG   0.0000
  17 C17         -0.0122    -0.0130    -0.0008 C.ar         1    LIG   0.0000
  18 C18          1.2044    -0.6870    -0.0161 C.ar         1    LIG   0.0000
  19 H            3.5525    -1.6989    -0.0421 H            1    LIG   0.0000
  20 H            4.2367    -0.4599    -0.8565 H            1    LIG   0.0000
  21 H            4.2509    -0.4705     0.7764 H            1    LIG   0.0000
  22 H            3.2532     1.9298    -0.0157 H            1    LIG   0.0000
  23 H            1.1584     3.0946     0.0090 H            1    LIG   0.0000
  24 H           -1.4565     2.6786     0.7810 H            1    LIG   0.0000
  25 H           -3.6371     1.1637     0.2515 H            1    LIG   0.0000
  26 H           -5.2617     0.8246    -1.4633 H            1    LIG   0.0000
  27 H           -4.7401     1.3398    -3.7426 H            1    LIG   0.0000
  28 H           -3.1920     2.1310    -5.3688 H            1    LIG   0.0000
  29 H           -1.0477     2.9910    -5.9662 H            1    LIG   0.0000
  30 H            0.6144     3.3463    -4.2725 H            1    LIG   0.0000
  31 H            0.0942     2.8328    -2.0020 H            1    LIG   0.0000
  32 H           -0.8729    -0.5220     0.0030 H            1    LIG   0.0000
  33 H            1.2219    -1.6868    -0.0238 H            1    LIG   0.0000
@<TRIPOS>BOND
   1        1        2 1
   2        2        3 ar
   3        3        4 ar
   4        4        5 ar
   5        5        6 1
   6        6        7 1
   7        7        8 ar
   8        8        9 ar
   9        9       10 ar
  10       10       11 ar
  11       11       12 ar
  12       12       13 ar
  13       13       14 ar
  14       14       15 ar
  15       15       16 ar
  16       16        7 ar
  17       16       11 ar
  18        5       17 ar
  19       17       18 ar
  20       18        2 ar
  21        1       19 1
  22        1       20 1
  23        1       21 1
  24        3       22 1
  25        4       23 1
  26        6       24 1
  27        8       25 1
  28        9       26 1
  29       10       27 1
  30       12       28 1
  31       13       29 1
  32       14       30 1
  33       15       31 1
  34       17       32 1
  35       18       33 1

