@<TRIPOS>MOLECULE
*****
 33 35 0 0 0
SMALL
USER_CHARGES

@<TRIPOS>ATOM
      1 C1          3.7226   -0.7135   -0.0371 C.3     1  LIG1        0.0000
      2 C2          2.3965    0.0295   -0.0208 C.ar    1  LIG1        0.0000
      3 C3          2.3924    1.4208   -0.0117 C.ar    1  LIG1        0.0000
      4 C4          1.1760    2.0948    0.0029 C.ar    1  LIG1        0.0000
      5 C5         -0.0165    1.3779    0.0092 C.ar    1  LIG1        0.0000
      6 N6         -1.2385    2.0615    0.0249 N.pl3   1  LIG1        0.0000
      7 C7         -2.1559    1.8808   -1.0190 C.ar    1  LIG1        0.0000
      8 C8         -3.4129    1.3813   -0.6984 C.ar    1  LIG1        0.0000
      9 C9         -4.3587    1.1840   -1.6988 C.ar    1  LIG1        0.0000
     10 C10        -4.0594    1.4824   -3.0241 C.ar    1  LIG1        0.0000
     11 C11        -2.7992    1.9820   -3.3349 C.ar    1  LIG1        0.0000
     12 C12        -2.5015    2.2789   -4.6607 C.ar    1  LIG1        0.0000
     13 C13        -1.2520    2.7798   -5.0104 C.ar    1  LIG1        0.0000
     14 C14        -0.2870    2.9869   -4.0308 C.ar    1  LIG1        0.0000
     15 C15        -0.5973    2.6854   -2.7093 C.ar    1  LIG1        0.0000
     16 C16        -1.8435    2.1841   -2.3430 C.ar    1  LIG1        0.0000
     17 C17        -0.0122   -0.0130   -0.0008 C.ar    1  LIG1        0.0000
     18 C18         1.2044   -0.6870   -0.0161 C.ar    1  LIG1        0.0000
     19 H           3.5525   -1.6989   -0.0421 H       1  LIG1        0.0000
     20 H           4.2367   -0.4599   -0.8565 H       1  LIG1        0.0000
     21 H           4.2509   -0.4705    0.7764 H       1  LIG1        0.0000
     22 H           3.2532    1.9298   -0.0157 H       1  LIG1        0.0000
     23 H           1.1584    3.0946    0.0090 H       1  LIG1        0.0000
     24 H          -1.4565    2.6786    0.7810 H       1  LIG1        0.0000
     25 H          -3.6371    1.1637    0.2515 H       1  LIG1        0.0000
     26 H          -5.2617    0.8246   -1.4633 H       1  LIG1        0.0000
     27 H          -4.7401    1.3398   -3.7426 H       1  LIG1        0.0000
     28 H          -3.1920    2.1310   -5.3688 H       1  LIG1        0.0000
     29 H          -1.0477    2.9910   -5.9662 H       1  LIG1        0.0000
     30 H           0.6144    3.3463   -4.2725 H       1  LIG1        0.0000
     31 H           0.0942    2.8328   -2.0020 H       1  LIG1        0.0000
     32 H          -0.8729   -0.5220    0.0030 H       1  LIG1        0.0000
     33 H           1.2219   -1.6868   -0.0238 H       1  LIG1        0.0000
@<TRIPOS>BOND
     1     1     2    1
     2     2     3   ar
     3     3     4   ar
     4     4     5   ar
     5     5     6    1
     6     6     7    1
     7     7     8   ar
     8     8     9   ar
     9     9    10   ar
    10    10    11   ar
    11    11    12   ar
    12    12    13   ar
    13    13    14   ar
    14    14    15   ar
    15    15    16   ar
    16    16     7   ar
    17    16    11   ar
    18     5    17   ar
    19    17    18   ar
    20    18     2   ar
    21     1    19    1
    22     1    20    1
    23     1    21    1
    24     3    22    1
    25     4    23    1
    26     6    24    1
    27     8    25    1
    28     9    26    1
    29    10    27    1
    30    12    28    1
    31    13    29    1
    32    14    30    1
    33    15    31    1
    34    17    32    1
    35    18    33    1
