@<TRIPOS>MOLECULE
*****
 33 35 0 0 0
SMALL
USER_CHARGES

@<TRIPOS>ATOM
      1 C1          3.7226   -0.7135   -0.0371 C.3     1  LIG1        0.0000
      2 C2          2.3965    0.0295   -0.0208 C.ar    1  LIG1        0.0000
      3 C3          2.3924    1.4208   -0.0117 C.ar    1  LIG1        0.0000
      4 C4          1.1760    2.0948    0.0029 C.ar    1  LIG1        0.0000
      5 C5         -0.0165    1.3779    0.0092 C.ar    1  LIG1        0.0000
      6 N6         -1.2385    2.0615    0.0249 N.pl3   1  LIG1        0.0000
      7 C7         -2.1366    1.8671    1.0830 C.ar    1  LIG1        0.0000
      8 C8         -3.0777    0.8519    0.9566 C.ar    1  LIG1        0.0000
      9 C9         -3.9911    0.6191    1.9792 C.ar    1  LIG1        0.0000
     10 C10        -3.9738    1.3952    3.1335 C.ar    1  LIG1        0.0000
     11 C11        -3.0283    2.4084    3.2508 C.ar    1  LIG1        0.0000
     12 C12        -3.0131    3.1839    4.4053 C.ar    1  LIG1        0.0000
     13 C13        -2.0829    4.2063    4.5588 C.ar    1  LIG1        0.0000
     14 C14        -1.1578    4.4615    3.5525 C.ar    1  LIG1        0.0000
     15 C15        -1.1842    3.6793    2.4031 C.ar    1  LIG1        0.0000
     16 C16        -2.1084    2.6517    2.2346 C.ar    1  LIG1        0.0000
     17 C17        -0.0122   -0.0130   -0.0008 C.ar    1  LIG1        0.0000
     18 C18         1.2044   -0.6870   -0.0161 C.ar    1  LIG1        0.0000
     19 H           3.5525   -1.6989   -0.0421 H       1  LIG1        0.0000
     20 H           4.2367   -0.4599   -0.8565 H       1  LIG1        0.0000
     21 H           4.2509   -0.4705    0.7764 H       1  LIG1        0.0000
     22 H           3.2532    1.9298   -0.0157 H       1  LIG1        0.0000
     23 H           1.1584    3.0946    0.0090 H       1  LIG1        0.0000
     24 H          -1.4703    2.6884   -0.7189 H       1  LIG1        0.0000
     25 H          -3.0979    0.2889    0.1304 H       1  LIG1        0.0000
     26 H          -4.6661   -0.1125    1.8838 H       1  LIG1        0.0000
     27 H          -4.6313    1.2271    3.8680 H       1  LIG1        0.0000
     28 H          -3.6769    3.0047    5.1315 H       1  LIG1        0.0000
     29 H          -2.0793    4.7580    5.3929 H       1  LIG1        0.0000
     30 H          -0.4853    5.1947    3.6536 H       1  LIG1        0.0000
     31 H          -0.5206    3.8598    1.6771 H       1  LIG1        0.0000
     32 H          -0.8729   -0.5220    0.0030 H       1  LIG1        0.0000
     33 H           1.2219   -1.6868   -0.0238 H       1  LIG1        0.0000
@<TRIPOS>BOND
     1     1     2    1
     2     2     3   ar
     3     3     4   ar
     4     4     5   ar
     5     5     6    1
     6     6     7    1
     7     7     8   ar
     8     8     9   ar
     9     9    10   ar
    10    10    11   ar
    11    11    12   ar
    12    12    13   ar
    13    13    14   ar
    14    14    15   ar
    15    15    16   ar
    16    16     7   ar
    17    16    11   ar
    18     5    17   ar
    19    17    18   ar
    20    18     2   ar
    21     1    19    1
    22     1    20    1
    23     1    21    1
    24     3    22    1
    25     4    23    1
    26     6    24    1
    27     8    25    1
    28     9    26    1
    29    10    27    1
    30    12    28    1
    31    13    29    1
    32    14    30    1
    33    15    31    1
    34    17    32    1
    35    18    33    1
