@<TRIPOS>MOLECULE

  31   32
SMALL
USER_CHARGES
@<TRIPOS>ATOM
   1 C1           1.4166     3.5835     0.0091 C.3          1    LIG   0.0000
   2 C2           1.4173     2.0637    -0.0017 C.3          1    LIG   0.0000
   3 C3           2.1576     1.5478     1.2221 C.3          1    LIG   0.0000
   4 C4           2.1704     0.0278     1.2370 C.3          1    LIG   0.0000
   5 C5           0.7468    -0.5052     1.2358 C.3          1    LIG   0.0000
   6 C6          -0.0006     0.0050     0.0144 C.3          1    LIG   0.0000
   7 C7          -0.0049     1.5251     0.0004 C.3          1    LIG   0.0000
   8 S8          -0.9131     2.1133    -1.4506 S.3          1    LIG   0.0000
   9 C9          -2.4794     1.3857    -1.2387 C.ar         1    LIG   0.0000
  10 C10         -2.7756     0.2332    -1.9592 C.ar         1    LIG   0.0000
  11 C11         -4.0230    -0.3608    -1.8019 C.ar         1    LIG   0.0000
  12 C12         -4.9548     0.1980    -0.9331 C.ar         1    LIG   0.0000
  13 Cl13        -6.5529    -0.5619    -0.7302 Cl           1    LIG   0.0000
  14 C14         -4.5992     1.3512    -0.2409 C.ar         1    LIG   0.0000
  15 N15         -3.3907     1.9105    -0.4055 N.ar         1    LIG   0.0000
  16 H            1.8859     1.7437    -0.8252 H            1    LIG   0.0000
  17 H           -0.4699     1.8516     0.8233 H            1    LIG   0.0000
  18 H            2.3592     3.9173     0.0075 H            1    LIG   0.0000
  19 H            0.9416     3.9225    -0.8030 H            1    LIG   0.0000
  20 H            0.9485     3.9108     0.8300 H            1    LIG   0.0000
  21 H            1.7012     1.8809     2.0471 H            1    LIG   0.0000
  22 H            3.0991     1.8844     1.2030 H            1    LIG   0.0000
  23 H            2.6426    -0.2912     2.0588 H            1    LIG   0.0000
  24 H            2.6499    -0.3072     0.4259 H            1    LIG   0.0000
  25 H            0.7677    -1.5048     1.2172 H            1    LIG   0.0000
  26 H            0.2775    -0.1970     2.0634 H            1    LIG   0.0000
  27 H            0.4491    -0.3318    -0.8129 H            1    LIG   0.0000
  28 H           -0.9431    -0.3280     0.0406 H            1    LIG   0.0000
  29 H           -2.1006    -0.1628    -2.5817 H            1    LIG   0.0000
  30 H           -4.2502    -1.1895    -2.3133 H            1    LIG   0.0000
  31 H           -5.2539     1.7695     0.3887 H            1    LIG   0.0000
@<TRIPOS>BOND
   1        1        2 1
   2        2        3 1
   3        3        4 1
   4        4        5 1
   5        5        6 1
   6        6        7 1
   7        7        2 1
   8        7        8 1
   9        8        9 1
  10        9       10 ar
  11       10       11 ar
  12       11       12 ar
  13       12       13 1
  14       12       14 ar
  15       14       15 ar
  16       15        9 ar
  17        2       16 1
  18        7       17 1
  19        1       18 1
  20        1       19 1
  21        1       20 1
  22        3       21 1
  23        3       22 1
  24        4       23 1
  25        4       24 1
  26        5       25 1
  27        5       26 1
  28        6       27 1
  29        6       28 1
  30       10       29 1
  31       11       30 1
  32       14       31 1

@<TRIPOS>MOLECULE

  31   32
SMALL
USER_CHARGES
@<TRIPOS>ATOM
   1 C1           1.4166     3.5835     0.0091 C.3          1    LIG   0.0000
   2 C2           1.4173     2.0637    -0.0017 C.3          1    LIG   0.0000
   3 C3           2.1576     1.5478     1.2221 C.3          1    LIG   0.0000
   4 C4           2.1704     0.0278     1.2370 C.3          1    LIG   0.0000
   5 C5           0.7468    -0.5052     1.2358 C.3          1    LIG   0.0000
   6 C6          -0.0006     0.0050     0.0144 C.3          1    LIG   0.0000
   7 C7          -0.0049     1.5251     0.0004 C.3          1    LIG   0.0000
   8 S8          -0.9131     2.1133    -1.4506 S.3          1    LIG   0.0000
   9 C9          -2.4794     1.3857    -1.2387 C.ar         1    LIG   0.0000
  10 C10         -3.5060     2.1669    -0.7181 C.ar         1    LIG   0.0000
  11 C11         -4.7638     1.6007    -0.5419 C.ar         1    LIG   0.0000
  12 C12         -4.9819     0.2703    -0.8851 C.ar         1    LIG   0.0000
  13 Cl13        -6.5926    -0.4562    -0.6606 Cl           1    LIG   0.0000
  14 C14         -3.9152    -0.4588    -1.4010 C.ar         1    LIG   0.0000
  15 N15         -2.7083     0.1043    -1.5639 N.ar         1    LIG   0.0000
  16 H            1.8859     1.7437    -0.8252 H            1    LIG   0.0000
  17 H           -0.4699     1.8516     0.8233 H            1    LIG   0.0000
  18 H            2.3592     3.9173     0.0075 H            1    LIG   0.0000
  19 H            0.9416     3.9225    -0.8030 H            1    LIG   0.0000
  20 H            0.9485     3.9108     0.8300 H            1    LIG   0.0000
  21 H            1.7012     1.8809     2.0471 H            1    LIG   0.0000
  22 H            3.0991     1.8844     1.2030 H            1    LIG   0.0000
  23 H            2.6426    -0.2912     2.0588 H            1    LIG   0.0000
  24 H            2.6499    -0.3072     0.4259 H            1    LIG   0.0000
  25 H            0.7677    -1.5048     1.2172 H            1    LIG   0.0000
  26 H            0.2775    -0.1970     2.0634 H            1    LIG   0.0000
  27 H            0.4491    -0.3318    -0.8129 H            1    LIG   0.0000
  28 H           -0.9431    -0.3280     0.0406 H            1    LIG   0.0000
  29 H           -3.3416     3.1225    -0.4738 H            1    LIG   0.0000
  30 H           -5.5115     2.1499    -0.1686 H            1    LIG   0.0000
  31 H           -4.0500    -1.4168    -1.6542 H            1    LIG   0.0000
@<TRIPOS>BOND
   1        1        2 1
   2        2        3 1
   3        3        4 1
   4        4        5 1
   5        5        6 1
   6        6        7 1
   7        7        2 1
   8        7        8 1
   9        8        9 1
  10        9       10 ar
  11       10       11 ar
  12       11       12 ar
  13       12       13 1
  14       12       14 ar
  15       14       15 ar
  16       15        9 ar
  17        2       16 1
  18        7       17 1
  19        1       18 1
  20        1       19 1
  21        1       20 1
  22        3       21 1
  23        3       22 1
  24        4       23 1
  25        4       24 1
  26        5       25 1
  27        5       26 1
  28        6       27 1
  29        6       28 1
  30       10       29 1
  31       11       30 1
  32       14       31 1

@<TRIPOS>MOLECULE

  31   32
SMALL
USER_CHARGES
@<TRIPOS>ATOM
   1 C1           1.4166     3.5835     0.0091 C.3          1    LIG   0.0000
   2 C2           1.4173     2.0637    -0.0017 C.3          1    LIG   0.0000
   3 C3           2.1576     1.5478     1.2221 C.3          1    LIG   0.0000
   4 C4           2.1704     0.0278     1.2370 C.3          1    LIG   0.0000
   5 C5           0.7468    -0.5052     1.2358 C.3          1    LIG   0.0000
   6 C6          -0.0006     0.0050     0.0144 C.3          1    LIG   0.0000
   7 C7          -0.0049     1.5251     0.0004 C.3          1    LIG   0.0000
   8 S8          -0.9131     2.1133    -1.4506 S.3          1    LIG   0.0000
   9 C9          -2.2370     2.9907    -0.7397 C.ar         1    LIG   0.0000
  10 C10         -2.3186     3.0542     0.6475 C.ar         1    LIG   0.0000
  11 C11         -3.3706     3.7509     1.2318 C.ar         1    LIG   0.0000
  12 C12         -4.3231     4.3726     0.4308 C.ar         1    LIG   0.0000
  13 Cl13        -5.6709     5.2659     1.1777 Cl           1    LIG   0.0000
  14 C14         -4.1867     4.2730    -0.9502 C.ar         1    LIG   0.0000
  15 N15         -3.1649     3.5963    -1.4963 N.ar         1    LIG   0.0000
  16 H            1.8859     1.7437    -0.8252 H            1    LIG   0.0000
  17 H           -0.4699     1.8516     0.8233 H            1    LIG   0.0000
  18 H            2.3592     3.9173     0.0075 H            1    LIG   0.0000
  19 H            0.9416     3.9225    -0.8030 H            1    LIG   0.0000
  20 H            0.9485     3.9108     0.8300 H            1    LIG   0.0000
  21 H            1.7012     1.8809     2.0471 H            1    LIG   0.0000
  22 H            3.0991     1.8844     1.2030 H            1    LIG   0.0000
  23 H            2.6426    -0.2912     2.0588 H            1    LIG   0.0000
  24 H            2.6499    -0.3072     0.4259 H            1    LIG   0.0000
  25 H            0.7677    -1.5048     1.2172 H            1    LIG   0.0000
  26 H            0.2775    -0.1970     2.0634 H            1    LIG   0.0000
  27 H            0.4491    -0.3318    -0.8129 H            1    LIG   0.0000
  28 H           -0.9431    -0.3280     0.0406 H            1    LIG   0.0000
  29 H           -1.6301     2.6049     1.2168 H            1    LIG   0.0000
  30 H           -3.4425     3.8050     2.2278 H            1    LIG   0.0000
  31 H           -4.8603     4.7123    -1.5446 H            1    LIG   0.0000
@<TRIPOS>BOND
   1        1        2 1
   2        2        3 1
   3        3        4 1
   4        4        5 1
   5        5        6 1
   6        6        7 1
   7        7        2 1
   8        7        8 1
   9        8        9 1
  10        9       10 ar
  11       10       11 ar
  12       11       12 ar
  13       12       13 1
  14       12       14 ar
  15       14       15 ar
  16       15        9 ar
  17        2       16 1
  18        7       17 1
  19        1       18 1
  20        1       19 1
  21        1       20 1
  22        3       21 1
  23        3       22 1
  24        4       23 1
  25        4       24 1
  26        5       25 1
  27        5       26 1
  28        6       27 1
  29        6       28 1
  30       10       29 1
  31       11       30 1
  32       14       31 1

@<TRIPOS>MOLECULE

  31   32
SMALL
USER_CHARGES
@<TRIPOS>ATOM
   1 C1           1.4166     3.5835     0.0091 C.3          1    LIG   0.0000
   2 C2           1.4173     2.0637    -0.0017 C.3          1    LIG   0.0000
   3 C3           2.1576     1.5478     1.2221 C.3          1    LIG   0.0000
   4 C4           2.1704     0.0278     1.2370 C.3          1    LIG   0.0000
   5 C5           0.7468    -0.5052     1.2358 C.3          1    LIG   0.0000
   6 C6          -0.0006     0.0050     0.0144 C.3          1    LIG   0.0000
   7 C7          -0.0049     1.5251     0.0004 C.3          1    LIG   0.0000
   8 S8          -0.9131     2.1133    -1.4506 S.3          1    LIG   0.0000
   9 C9          -2.2370     2.9907    -0.7397 C.ar         1    LIG   0.0000
  10 C10         -3.4762     2.3641    -0.6568 C.ar         1    LIG   0.0000
  11 C11         -4.5450     3.0513    -0.0919 C.ar         1    LIG   0.0000
  12 C12         -4.3666     4.3474     0.3809 C.ar         1    LIG   0.0000
  13 Cl13        -5.7344     5.2288     1.1052 Cl           1    LIG   0.0000
  14 C14         -3.1033     4.9197     0.2696 C.ar         1    LIG   0.0000
  15 N15         -2.0837     4.2413    -0.2786 N.ar         1    LIG   0.0000
  16 H            1.8859     1.7437    -0.8252 H            1    LIG   0.0000
  17 H           -0.4699     1.8516     0.8233 H            1    LIG   0.0000
  18 H            2.3592     3.9173     0.0075 H            1    LIG   0.0000
  19 H            0.9416     3.9225    -0.8030 H            1    LIG   0.0000
  20 H            0.9485     3.9108     0.8300 H            1    LIG   0.0000
  21 H            1.7012     1.8809     2.0471 H            1    LIG   0.0000
  22 H            3.0991     1.8844     1.2030 H            1    LIG   0.0000
  23 H            2.6426    -0.2912     2.0588 H            1    LIG   0.0000
  24 H            2.6499    -0.3072     0.4259 H            1    LIG   0.0000
  25 H            0.7677    -1.5048     1.2172 H            1    LIG   0.0000
  26 H            0.2775    -0.1970     2.0634 H            1    LIG   0.0000
  27 H            0.4491    -0.3318    -0.8129 H            1    LIG   0.0000
  28 H           -0.9431    -0.3280     0.0406 H            1    LIG   0.0000
  29 H           -3.5968     1.4321    -0.9987 H            1    LIG   0.0000
  30 H           -5.4418     2.6138    -0.0256 H            1    LIG   0.0000
  31 H           -2.9530     5.8504     0.6030 H            1    LIG   0.0000
@<TRIPOS>BOND
   1        1        2 1
   2        2        3 1
   3        3        4 1
   4        4        5 1
   5        5        6 1
   6        6        7 1
   7        7        2 1
   8        7        8 1
   9        8        9 1
  10        9       10 ar
  11       10       11 ar
  12       11       12 ar
  13       12       13 1
  14       12       14 ar
  15       14       15 ar
  16       15        9 ar
  17        2       16 1
  18        7       17 1
  19        1       18 1
  20        1       19 1
  21        1       20 1
  22        3       21 1
  23        3       22 1
  24        4       23 1
  25        4       24 1
  26        5       25 1
  27        5       26 1
  28        6       27 1
  29        6       28 1
  30       10       29 1
  31       11       30 1
  32       14       31 1

@<TRIPOS>MOLECULE

  31   32
SMALL
USER_CHARGES
@<TRIPOS>ATOM
   1 C1           1.4166     3.5835     0.0091 C.3          1    LIG   0.0000
   2 C2           1.4173     2.0637    -0.0017 C.3          1    LIG   0.0000
   3 C3           2.1576     1.5478     1.2221 C.3          1    LIG   0.0000
   4 C4           2.1704     0.0278     1.2370 C.3          1    LIG   0.0000
   5 C5           0.7468    -0.5052     1.2358 C.3          1    LIG   0.0000
   6 C6          -0.0006     0.0050     0.0144 C.3          1    LIG   0.0000
   7 C7          -0.0049     1.5251     0.0004 C.3          1    LIG   0.0000
   8 S8          -0.9131     2.1133    -1.4506 S.3          1    LIG   0.0000
   9 C9          -2.2370     2.9907    -0.7397 C.ar         1    LIG   0.0000
  10 C10         -2.1496     4.3773    -0.6708 C.ar         1    LIG   0.0000
  11 C11         -3.1987     5.0937    -0.1053 C.ar         1    LIG   0.0000
  12 C12         -4.3160     4.4230     0.3817 C.ar         1    LIG   0.0000
  13 Cl13        -5.6609     5.3393     1.1058 Cl           1    LIG   0.0000
  14 C14         -4.3441     3.0355     0.2841 C.ar         1    LIG   0.0000
  15 N15         -3.3223     2.3609    -0.2647 N.ar         1    LIG   0.0000
  16 H            1.8859     1.7437    -0.8252 H            1    LIG   0.0000
  17 H           -0.4699     1.8516     0.8233 H            1    LIG   0.0000
  18 H            2.3592     3.9173     0.0075 H            1    LIG   0.0000
  19 H            0.9416     3.9225    -0.8030 H            1    LIG   0.0000
  20 H            0.9485     3.9108     0.8300 H            1    LIG   0.0000
  21 H            1.7012     1.8809     2.0471 H            1    LIG   0.0000
  22 H            3.0991     1.8844     1.2030 H            1    LIG   0.0000
  23 H            2.6426    -0.2912     2.0588 H            1    LIG   0.0000
  24 H            2.6499    -0.3072     0.4259 H            1    LIG   0.0000
  25 H            0.7677    -1.5048     1.2172 H            1    LIG   0.0000
  26 H            0.2775    -0.1970     2.0634 H            1    LIG   0.0000
  27 H            0.4491    -0.3318    -0.8129 H            1    LIG   0.0000
  28 H           -0.9431    -0.3280     0.0406 H            1    LIG   0.0000
  29 H           -1.3434     4.8524    -1.0232 H            1    LIG   0.0000
  30 H           -3.1501     6.0909    -0.0488 H            1    LIG   0.0000
  31 H           -5.1376     2.5335     0.6281 H            1    LIG   0.0000
@<TRIPOS>BOND
   1        1        2 1
   2        2        3 1
   3        3        4 1
   4        4        5 1
   5        5        6 1
   6        6        7 1
   7        7        2 1
   8        7        8 1
   9        8        9 1
  10        9       10 ar
  11       10       11 ar
  12       11       12 ar
  13       12       13 1
  14       12       14 ar
  15       14       15 ar
  16       15        9 ar
  17        2       16 1
  18        7       17 1
  19        1       18 1
  20        1       19 1
  21        1       20 1
  22        3       21 1
  23        3       22 1
  24        4       23 1
  25        4       24 1
  26        5       25 1
  27        5       26 1
  28        6       27 1
  29        6       28 1
  30       10       29 1
  31       11       30 1
  32       14       31 1

@<TRIPOS>MOLECULE

  31   32
SMALL
USER_CHARGES
@<TRIPOS>ATOM
   1 C1           1.4166     3.5835     0.0091 C.3          1    LIG   0.0000
   2 C2           1.4173     2.0637    -0.0017 C.3          1    LIG   0.0000
   3 C3           2.1576     1.5478     1.2221 C.3          1    LIG   0.0000
   4 C4           2.1704     0.0278     1.2370 C.3          1    LIG   0.0000
   5 C5           0.7468    -0.5052     1.2358 C.3          1    LIG   0.0000
   6 C6          -0.0006     0.0050     0.0144 C.3          1    LIG   0.0000
   7 C7          -0.0049     1.5251     0.0004 C.3          1    LIG   0.0000
   8 S8          -0.9131     2.1133    -1.4506 S.3          1    LIG   0.0000
   9 C9          -1.3459     0.6318    -2.2538 C.ar         1    LIG   0.0000
  10 C10         -0.5793     0.2201    -3.3391 C.ar         1    LIG   0.0000
  11 C11         -0.9119    -0.9614    -3.9927 C.ar         1    LIG   0.0000
  12 C12         -1.9984    -1.7141    -3.5588 C.ar         1    LIG   0.0000
  13 Cl13        -2.4254    -3.2280    -4.3945 Cl           1    LIG   0.0000
  14 C14         -2.7261    -1.2497    -2.4677 C.ar         1    LIG   0.0000
  15 N15         -2.3904    -0.1071    -1.8495 N.ar         1    LIG   0.0000
  16 H            1.8859     1.7437    -0.8252 H            1    LIG   0.0000
  17 H           -0.4699     1.8516     0.8233 H            1    LIG   0.0000
  18 H            2.3592     3.9173     0.0075 H            1    LIG   0.0000
  19 H            0.9416     3.9225    -0.8030 H            1    LIG   0.0000
  20 H            0.9485     3.9108     0.8300 H            1    LIG   0.0000
  21 H            1.7012     1.8809     2.0471 H            1    LIG   0.0000
  22 H            3.0991     1.8844     1.2030 H            1    LIG   0.0000
  23 H            2.6426    -0.2912     2.0588 H            1    LIG   0.0000
  24 H            2.6499    -0.3072     0.4259 H            1    LIG   0.0000
  25 H            0.7677    -1.5048     1.2172 H            1    LIG   0.0000
  26 H            0.2775    -0.1970     2.0634 H            1    LIG   0.0000
  27 H            0.4491    -0.3318    -0.8129 H            1    LIG   0.0000
  28 H           -0.9431    -0.3280     0.0406 H            1    LIG   0.0000
  29 H            0.2004     0.7664    -3.6452 H            1    LIG   0.0000
  30 H           -0.3701    -1.2699    -4.7745 H            1    LIG   0.0000
  31 H           -3.5110    -1.7752    -2.1394 H            1    LIG   0.0000
@<TRIPOS>BOND
   1        1        2 1
   2        2        3 1
   3        3        4 1
   4        4        5 1
   5        5        6 1
   6        6        7 1
   7        7        2 1
   8        7        8 1
   9        8        9 1
  10        9       10 ar
  11       10       11 ar
  12       11       12 ar
  13       12       13 1
  14       12       14 ar
  15       14       15 ar
  16       15        9 ar
  17        2       16 1
  18        7       17 1
  19        1       18 1
  20        1       19 1
  21        1       20 1
  22        3       21 1
  23        3       22 1
  24        4       23 1
  25        4       24 1
  26        5       25 1
  27        5       26 1
  28        6       27 1
  29        6       28 1
  30       10       29 1
  31       11       30 1
  32       14       31 1

@<TRIPOS>MOLECULE

  31   32
SMALL
USER_CHARGES
@<TRIPOS>ATOM
   1 C1           1.4166     3.5835     0.0091 C.3          1    LIG   0.0000
   2 C2           1.4173     2.0637    -0.0017 C.3          1    LIG   0.0000
   3 C3           2.1576     1.5478     1.2221 C.3          1    LIG   0.0000
   4 C4           2.1704     0.0278     1.2370 C.3          1    LIG   0.0000
   5 C5           0.7468    -0.5052     1.2358 C.3          1    LIG   0.0000
   6 C6          -0.0006     0.0050     0.0144 C.3          1    LIG   0.0000
   7 C7          -0.0049     1.5251     0.0004 C.3          1    LIG   0.0000
   8 S8          -0.9131     2.1133    -1.4506 S.3          1    LIG   0.0000
   9 C9          -1.3459     0.6318    -2.2538 C.ar         1    LIG   0.0000
  10 C10         -2.6363     0.1406    -2.0839 C.ar         1    LIG   0.0000
  11 C11         -2.9985    -1.0426    -2.7185 C.ar         1    LIG   0.0000
  12 C12         -2.0753    -1.7179    -3.5104 C.ar         1    LIG   0.0000
  13 Cl13        -2.5379    -3.2331    -4.3243 Cl           1    LIG   0.0000
  14 C14         -0.8006    -1.1760    -3.6412 C.ar         1    LIG   0.0000
  15 N15         -0.4690    -0.0332    -3.0212 N.ar         1    LIG   0.0000
  16 H            1.8859     1.7437    -0.8252 H            1    LIG   0.0000
  17 H           -0.4699     1.8516     0.8233 H            1    LIG   0.0000
  18 H            2.3592     3.9173     0.0075 H            1    LIG   0.0000
  19 H            0.9416     3.9225    -0.8030 H            1    LIG   0.0000
  20 H            0.9485     3.9108     0.8300 H            1    LIG   0.0000
  21 H            1.7012     1.8809     2.0471 H            1    LIG   0.0000
  22 H            3.0991     1.8844     1.2030 H            1    LIG   0.0000
  23 H            2.6426    -0.2912     2.0588 H            1    LIG   0.0000
  24 H            2.6499    -0.3072     0.4259 H            1    LIG   0.0000
  25 H            0.7677    -1.5048     1.2172 H            1    LIG   0.0000
  26 H            0.2775    -0.1970     2.0634 H            1    LIG   0.0000
  27 H            0.4491    -0.3318    -0.8129 H            1    LIG   0.0000
  28 H           -0.9431    -0.3280     0.0406 H            1    LIG   0.0000
  29 H           -3.2944     0.6316    -1.5132 H            1    LIG   0.0000
  30 H           -3.9225    -1.4080    -2.6056 H            1    LIG   0.0000
  31 H           -0.1215    -1.6452    -4.2057 H            1    LIG   0.0000
@<TRIPOS>BOND
   1        1        2 1
   2        2        3 1
   3        3        4 1
   4        4        5 1
   5        5        6 1
   6        6        7 1
   7        7        2 1
   8        7        8 1
   9        8        9 1
  10        9       10 ar
  11       10       11 ar
  12       11       12 ar
  13       12       13 1
  14       12       14 ar
  15       14       15 ar
  16       15        9 ar
  17        2       16 1
  18        7       17 1
  19        1       18 1
  20        1       19 1
  21        1       20 1
  22        3       21 1
  23        3       22 1
  24        4       23 1
  25        4       24 1
  26        5       25 1
  27        5       26 1
  28        6       27 1
  29        6       28 1
  30       10       29 1
  31       11       30 1
  32       14       31 1

@<TRIPOS>MOLECULE

  31   32
SMALL
USER_CHARGES
@<TRIPOS>ATOM
   1 C1           1.5298     2.1029     2.5122 C.3          1    LIG   0.0000
   2 C2           2.1464     1.5426     1.2386 C.3          1    LIG   0.0000
   3 C3           2.1618     0.0212     1.2597 C.3          1    LIG   0.0000
   4 C4           0.7590    -0.5677     1.2092 C.3          1    LIG   0.0000
   5 C5          -0.0433    -0.0262     0.0343 C.3          1    LIG   0.0000
   6 C6          -0.0085     1.4948    -0.0337 C.3          1    LIG   0.0000
   7 C7           1.4114     2.0406     0.0034 C.3          1    LIG   0.0000
   8 S8           2.2713     1.5659    -1.5181 S.3          1    LIG   0.0000
   9 C9           1.2514     2.2396    -2.7565 C.ar         1    LIG   0.0000
  10 C10          0.3631     1.3943    -3.4133 C.ar         1    LIG   0.0000
  11 C11         -0.4588     1.9164    -4.4060 C.ar         1    LIG   0.0000
  12 C12         -0.3859     3.2674    -4.7300 C.ar         1    LIG   0.0000
  13 Cl13        -1.4384     3.9379    -6.0008 Cl           1    LIG   0.0000
  14 C14          0.5228     4.0613    -4.0374 C.ar         1    LIG   0.0000
  15 N15          1.3080     3.5398    -3.0825 N.ar         1    LIG   0.0000
  16 H            3.0927     1.8616     1.1860 H            1    LIG   0.0000
  17 H            1.3659     3.0388     0.0430 H            1    LIG   0.0000
  18 H            2.0327     1.7590     3.3052 H            1    LIG   0.0000
  19 H            1.5779     3.1015     2.4944 H            1    LIG   0.0000
  20 H            0.5738     1.8162     2.5737 H            1    LIG   0.0000
  21 H            2.6097    -0.2849     2.0997 H            1    LIG   0.0000
  22 H            2.6776    -0.3068     0.4683 H            1    LIG   0.0000
  23 H            0.2822    -0.3400     2.0583 H            1    LIG   0.0000
  24 H            0.8287    -1.5615     1.1223 H            1    LIG   0.0000
  25 H            0.3379    -0.3953    -0.8134 H            1    LIG   0.0000
  26 H           -0.9936    -0.3227     0.1292 H            1    LIG   0.0000
  27 H           -0.4442     1.7890    -0.8844 H            1    LIG   0.0000
  28 H           -0.5155     1.8635     0.7454 H            1    LIG   0.0000
  29 H            0.3162     0.4242    -3.1748 H            1    LIG   0.0000
  30 H           -1.1023     1.3209    -4.8869 H            1    LIG   0.0000
  31 H            0.5917     5.0350    -4.2544 H            1    LIG   0.0000
@<TRIPOS>BOND
   1        1        2 1
   2        2        3 1
   3        3        4 1
   4        4        5 1
   5        5        6 1
   6        6        7 1
   7        7        2 1
   8        7        8 1
   9        8        9 1
  10        9       10 ar
  11       10       11 ar
  12       11       12 ar
  13       12       13 1
  14       12       14 ar
  15       14       15 ar
  16       15        9 ar
  17        2       16 1
  18        7       17 1
  19        1       18 1
  20        1       19 1
  21        1       20 1
  22        3       21 1
  23        3       22 1
  24        4       23 1
  25        4       24 1
  26        5       25 1
  27        5       26 1
  28        6       27 1
  29        6       28 1
  30       10       29 1
  31       11       30 1
  32       14       31 1

@<TRIPOS>MOLECULE

  31   32
SMALL
USER_CHARGES
@<TRIPOS>ATOM
   1 C1           1.5298     2.1029     2.5122 C.3          1    LIG   0.0000
   2 C2           2.1464     1.5426     1.2386 C.3          1    LIG   0.0000
   3 C3           2.1618     0.0212     1.2597 C.3          1    LIG   0.0000
   4 C4           0.7590    -0.5677     1.2092 C.3          1    LIG   0.0000
   5 C5          -0.0433    -0.0262     0.0343 C.3          1    LIG   0.0000
   6 C6          -0.0085     1.4948    -0.0337 C.3          1    LIG   0.0000
   7 C7           1.4114     2.0406     0.0034 C.3          1    LIG   0.0000
   8 S8           2.2713     1.5659    -1.5181 S.3          1    LIG   0.0000
   9 C9           1.2514     2.2396    -2.7565 C.ar         1    LIG   0.0000
  10 C10          1.6277     3.4456    -3.3387 C.ar         1    LIG   0.0000
  11 C11          0.8237     3.9981    -4.3297 C.ar         1    LIG   0.0000
  12 C12         -0.3391     3.3453    -4.7262 C.ar         1    LIG   0.0000
  13 Cl13        -1.3697     4.0513    -5.9957 Cl           1    LIG   0.0000
  14 C14         -0.6615     2.1423    -4.1061 C.ar         1    LIG   0.0000
  15 N15          0.1265     1.6243    -3.1516 N.ar         1    LIG   0.0000
  16 H            3.0927     1.8616     1.1860 H            1    LIG   0.0000
  17 H            1.3659     3.0388     0.0430 H            1    LIG   0.0000
  18 H            2.0327     1.7590     3.3052 H            1    LIG   0.0000
  19 H            1.5779     3.1015     2.4944 H            1    LIG   0.0000
  20 H            0.5738     1.8162     2.5737 H            1    LIG   0.0000
  21 H            2.6097    -0.2849     2.0997 H            1    LIG   0.0000
  22 H            2.6776    -0.3068     0.4683 H            1    LIG   0.0000
  23 H            0.2822    -0.3400     2.0583 H            1    LIG   0.0000
  24 H            0.8287    -1.5615     1.1223 H            1    LIG   0.0000
  25 H            0.3379    -0.3953    -0.8134 H            1    LIG   0.0000
  26 H           -0.9936    -0.3227     0.1292 H            1    LIG   0.0000
  27 H           -0.4442     1.7890    -0.8844 H            1    LIG   0.0000
  28 H           -0.5155     1.8635     0.7454 H            1    LIG   0.0000
  29 H            2.4650     3.9090    -3.0486 H            1    LIG   0.0000
  30 H            1.0812     4.8646    -4.7572 H            1    LIG   0.0000
  31 H           -1.4929     1.6564    -4.3759 H            1    LIG   0.0000
@<TRIPOS>BOND
   1        1        2 1
   2        2        3 1
   3        3        4 1
   4        4        5 1
   5        5        6 1
   6        6        7 1
   7        7        2 1
   8        7        8 1
   9        8        9 1
  10        9       10 ar
  11       10       11 ar
  12       11       12 ar
  13       12       13 1
  14       12       14 ar
  15       14       15 ar
  16       15        9 ar
  17        2       16 1
  18        7       17 1
  19        1       18 1
  20        1       19 1
  21        1       20 1
  22        3       21 1
  23        3       22 1
  24        4       23 1
  25        4       24 1
  26        5       25 1
  27        5       26 1
  28        6       27 1
  29        6       28 1
  30       10       29 1
  31       11       30 1
  32       14       31 1

@<TRIPOS>MOLECULE

  31   32
SMALL
USER_CHARGES
@<TRIPOS>ATOM
   1 C1           1.5298     2.1029     2.5122 C.3          1    LIG   0.0000
   2 C2           2.1464     1.5426     1.2386 C.3          1    LIG   0.0000
   3 C3           2.1618     0.0212     1.2597 C.3          1    LIG   0.0000
   4 C4           0.7590    -0.5677     1.2092 C.3          1    LIG   0.0000
   5 C5          -0.0433    -0.0262     0.0343 C.3          1    LIG   0.0000
   6 C6          -0.0085     1.4948    -0.0337 C.3          1    LIG   0.0000
   7 C7           1.4114     2.0406     0.0034 C.3          1    LIG   0.0000
   8 S8           2.2713     1.5659    -1.5181 S.3          1    LIG   0.0000
   9 C9           2.6228     3.1042    -2.2512 C.ar         1    LIG   0.0000
  10 C10          2.2161     4.2592    -1.5912 C.ar         1    LIG   0.0000
  11 C11          2.4887     5.4968    -2.1636 C.ar         1    LIG   0.0000
  12 C12          3.1599     5.5678    -3.3801 C.ar         1    LIG   0.0000
  13 Cl13         3.5104     7.1522    -4.1143 Cl           1    LIG   0.0000
  14 C14          3.5407     4.3773    -3.9911 C.ar         1    LIG   0.0000
  15 N15          3.2689     3.1921    -3.4238 N.ar         1    LIG   0.0000
  16 H            3.0927     1.8616     1.1860 H            1    LIG   0.0000
  17 H            1.3659     3.0388     0.0430 H            1    LIG   0.0000
  18 H            2.0327     1.7590     3.3052 H            1    LIG   0.0000
  19 H            1.5779     3.1015     2.4944 H            1    LIG   0.0000
  20 H            0.5738     1.8162     2.5737 H            1    LIG   0.0000
  21 H            2.6097    -0.2849     2.0997 H            1    LIG   0.0000
  22 H            2.6776    -0.3068     0.4683 H            1    LIG   0.0000
  23 H            0.2822    -0.3400     2.0583 H            1    LIG   0.0000
  24 H            0.8287    -1.5615     1.1223 H            1    LIG   0.0000
  25 H            0.3379    -0.3953    -0.8134 H            1    LIG   0.0000
  26 H           -0.9936    -0.3227     0.1292 H            1    LIG   0.0000
  27 H           -0.4442     1.7890    -0.8844 H            1    LIG   0.0000
  28 H           -0.5155     1.8635     0.7454 H            1    LIG   0.0000
  29 H            1.7341     4.2003    -0.7170 H            1    LIG   0.0000
  30 H            2.2023     6.3357    -1.7008 H            1    LIG   0.0000
  31 H            4.0242     4.4053    -4.8660 H            1    LIG   0.0000
@<TRIPOS>BOND
   1        1        2 1
   2        2        3 1
   3        3        4 1
   4        4        5 1
   5        5        6 1
   6        6        7 1
   7        7        2 1
   8        7        8 1
   9        8        9 1
  10        9       10 ar
  11       10       11 ar
  12       11       12 ar
  13       12       13 1
  14       12       14 ar
  15       14       15 ar
  16       15        9 ar
  17        2       16 1
  18        7       17 1
  19        1       18 1
  20        1       19 1
  21        1       20 1
  22        3       21 1
  23        3       22 1
  24        4       23 1
  25        4       24 1
  26        5       25 1
  27        5       26 1
  28        6       27 1
  29        6       28 1
  30       10       29 1
  31       11       30 1
  32       14       31 1

@<TRIPOS>MOLECULE

  31   32
SMALL
USER_CHARGES
@<TRIPOS>ATOM
   1 C1           1.5298     2.1029     2.5122 C.3          1    LIG   0.0000
   2 C2           2.1464     1.5426     1.2386 C.3          1    LIG   0.0000
   3 C3           2.1618     0.0212     1.2597 C.3          1    LIG   0.0000
   4 C4           0.7590    -0.5677     1.2092 C.3          1    LIG   0.0000
   5 C5          -0.0433    -0.0262     0.0343 C.3          1    LIG   0.0000
   6 C6          -0.0085     1.4948    -0.0337 C.3          1    LIG   0.0000
   7 C7           1.4114     2.0406     0.0034 C.3          1    LIG   0.0000
   8 S8           2.2713     1.5659    -1.5181 S.3          1    LIG   0.0000
   9 C9           2.6228     3.1042    -2.2512 C.ar         1    LIG   0.0000
  10 C10          1.7962     3.5519    -3.2766 C.ar         1    LIG   0.0000
  11 C11          2.0634     4.7790    -3.8737 C.ar         1    LIG   0.0000
  12 C12          3.1451     5.5408    -3.4438 C.ar         1    LIG   0.0000
  13 Cl13         3.4884     7.1130    -4.2072 Cl           1    LIG   0.0000
  14 C14          3.9347     5.0388    -2.4141 C.ar         1    LIG   0.0000
  15 N15          3.6616     3.8525    -1.8499 N.ar         1    LIG   0.0000
  16 H            3.0927     1.8616     1.1860 H            1    LIG   0.0000
  17 H            1.3659     3.0388     0.0430 H            1    LIG   0.0000
  18 H            2.0327     1.7590     3.3052 H            1    LIG   0.0000
  19 H            1.5779     3.1015     2.4944 H            1    LIG   0.0000
  20 H            0.5738     1.8162     2.5737 H            1    LIG   0.0000
  21 H            2.6097    -0.2849     2.0997 H            1    LIG   0.0000
  22 H            2.6776    -0.3068     0.4683 H            1    LIG   0.0000
  23 H            0.2822    -0.3400     2.0583 H            1    LIG   0.0000
  24 H            0.8287    -1.5615     1.1223 H            1    LIG   0.0000
  25 H            0.3379    -0.3953    -0.8134 H            1    LIG   0.0000
  26 H           -0.9936    -0.3227     0.1292 H            1    LIG   0.0000
  27 H           -0.4442     1.7890    -0.8844 H            1    LIG   0.0000
  28 H           -0.5155     1.8635     0.7454 H            1    LIG   0.0000
  29 H            1.0204     2.9988    -3.5802 H            1    LIG   0.0000
  30 H            1.4780     5.1138    -4.6121 H            1    LIG   0.0000
  31 H            4.7173     5.5701    -2.0897 H            1    LIG   0.0000
@<TRIPOS>BOND
   1        1        2 1
   2        2        3 1
   3        3        4 1
   4        4        5 1
   5        5        6 1
   6        6        7 1
   7        7        2 1
   8        7        8 1
   9        8        9 1
  10        9       10 ar
  11       10       11 ar
  12       11       12 ar
  13       12       13 1
  14       12       14 ar
  15       14       15 ar
  16       15        9 ar
  17        2       16 1
  18        7       17 1
  19        1       18 1
  20        1       19 1
  21        1       20 1
  22        3       21 1
  23        3       22 1
  24        4       23 1
  25        4       24 1
  26        5       25 1
  27        5       26 1
  28        6       27 1
  29        6       28 1
  30       10       29 1
  31       11       30 1
  32       14       31 1

@<TRIPOS>MOLECULE

  31   32
SMALL
USER_CHARGES
@<TRIPOS>ATOM
   1 C1           1.5298     2.1029     2.5122 C.3          1    LIG   0.0000
   2 C2           2.1464     1.5426     1.2386 C.3          1    LIG   0.0000
   3 C3           2.1618     0.0212     1.2597 C.3          1    LIG   0.0000
   4 C4           0.7590    -0.5677     1.2092 C.3          1    LIG   0.0000
   5 C5          -0.0433    -0.0262     0.0343 C.3          1    LIG   0.0000
   6 C6          -0.0085     1.4948    -0.0337 C.3          1    LIG   0.0000
   7 C7           1.4114     2.0406     0.0034 C.3          1    LIG   0.0000
   8 S8           2.2713     1.5659    -1.5181 S.3          1    LIG   0.0000
   9 C9           2.6228     3.1042    -2.2512 C.ar         1    LIG   0.0000
  10 C10          3.9041     3.6268    -2.1087 C.ar         1    LIG   0.0000
  11 C11          4.2017     4.8554    -2.6880 C.ar         1    LIG   0.0000
  12 C12          3.2240     5.5443    -3.3986 C.ar         1    LIG   0.0000
  13 Cl13         3.6037     7.1178    -4.1418 Cl           1    LIG   0.0000
  14 C14          1.9616     4.9694    -3.5059 C.ar         1    LIG   0.0000
  15 N15          1.6927     3.7829    -2.9400 N.ar         1    LIG   0.0000
  16 H            3.0927     1.8616     1.1860 H            1    LIG   0.0000
  17 H            1.3659     3.0388     0.0430 H            1    LIG   0.0000
  18 H            2.0327     1.7590     3.3052 H            1    LIG   0.0000
  19 H            1.5779     3.1015     2.4944 H            1    LIG   0.0000
  20 H            0.5738     1.8162     2.5737 H            1    LIG   0.0000
  21 H            2.6097    -0.2849     2.0997 H            1    LIG   0.0000
  22 H            2.6776    -0.3068     0.4683 H            1    LIG   0.0000
  23 H            0.2822    -0.3400     2.0583 H            1    LIG   0.0000
  24 H            0.8287    -1.5615     1.1223 H            1    LIG   0.0000
  25 H            0.3379    -0.3953    -0.8134 H            1    LIG   0.0000
  26 H           -0.9936    -0.3227     0.1292 H            1    LIG   0.0000
  27 H           -0.4442     1.7890    -0.8844 H            1    LIG   0.0000
  28 H           -0.5155     1.8635     0.7454 H            1    LIG   0.0000
  29 H            4.6017     3.1257    -1.5965 H            1    LIG   0.0000
  30 H            5.1184     5.2437    -2.5938 H            1    LIG   0.0000
  31 H            1.2440     5.4476    -4.0122 H            1    LIG   0.0000
@<TRIPOS>BOND
   1        1        2 1
   2        2        3 1
   3        3        4 1
   4        4        5 1
   5        5        6 1
   6        6        7 1
   7        7        2 1
   8        7        8 1
   9        8        9 1
  10        9       10 ar
  11       10       11 ar
  12       11       12 ar
  13       12       13 1
  14       12       14 ar
  15       14       15 ar
  16       15        9 ar
  17        2       16 1
  18        7       17 1
  19        1       18 1
  20        1       19 1
  21        1       20 1
  22        3       21 1
  23        3       22 1
  24        4       23 1
  25        4       24 1
  26        5       25 1
  27        5       26 1
  28        6       27 1
  29        6       28 1
  30       10       29 1
  31       11       30 1
  32       14       31 1

@<TRIPOS>MOLECULE

  31   32
SMALL
USER_CHARGES
@<TRIPOS>ATOM
   1 C1          -1.3697    -0.5447     0.0068 C.3          1    LIG   0.0000
   2 C2          -0.2333     0.2906     0.5751 C.3          1    LIG   0.0000
   3 C3           0.8561    -0.6720     1.0245 C.3          1    LIG   0.0000
   4 C4           2.2022     0.0350     1.0556 C.3          1    LIG   0.0000
   5 C5           2.0401     1.5230     1.3270 C.3          1    LIG   0.0000
   6 C6           1.2794     2.2212     0.2087 C.3          1    LIG   0.0000
   7 C7           0.3380     1.2370    -0.4670 C.3          1    LIG   0.0000
   8 S8          -0.9644     2.1959    -1.2806 S.3          1    LIG   0.0000
   9 C9          -2.1743     2.3247    -0.0367 C.ar         1    LIG   0.0000
  10 C10         -3.2662     1.4642    -0.0853 C.ar         1    LIG   0.0000
  11 C11         -4.2425     1.5541     0.9008 C.ar         1    LIG   0.0000
  12 C12         -4.1191     2.4953     1.9179 C.ar         1    LIG   0.0000
  13 Cl13        -5.3684     2.6113     3.1820 Cl           1    LIG   0.0000
  14 C14         -3.0041     3.3274     1.9117 C.ar         1    LIG   0.0000
  15 N15         -2.0721     3.2262     0.9517 N.ar         1    LIG   0.0000
  16 H           -0.5624     0.8152     1.3603 H            1    LIG   0.0000
  17 H            0.8420     0.7117    -1.1527 H            1    LIG   0.0000
  18 H           -1.7220    -1.1549     0.7164 H            1    LIG   0.0000
  19 H           -2.1023     0.0590    -0.3075 H            1    LIG   0.0000
  20 H           -1.0321    -1.0876    -0.7621 H            1    LIG   0.0000
  21 H            0.9014    -1.4407     0.3864 H            1    LIG   0.0000
  22 H            0.6400    -1.0112     1.9400 H            1    LIG   0.0000
  23 H            2.6547    -0.0874     0.1723 H            1    LIG   0.0000
  24 H            2.7651    -0.3682     1.7771 H            1    LIG   0.0000
  25 H            1.5386     1.6431     2.1838 H            1    LIG   0.0000
  26 H            2.9462     1.9376     1.4103 H            1    LIG   0.0000
  27 H            0.7496     2.9787     0.5903 H            1    LIG   0.0000
  28 H            1.9291     2.5746    -0.4643 H            1    LIG   0.0000
  29 H           -3.3480     0.7901    -0.8194 H            1    LIG   0.0000
  30 H           -5.0332     0.9423     0.8789 H            1    LIG   0.0000
  31 H           -2.8957     4.0110     2.6334 H            1    LIG   0.0000
@<TRIPOS>BOND
   1        1        2 1
   2        2        3 1
   3        3        4 1
   4        4        5 1
   5        5        6 1
   6        6        7 1
   7        7        2 1
   8        7        8 1
   9        8        9 1
  10        9       10 ar
  11       10       11 ar
  12       11       12 ar
  13       12       13 1
  14       12       14 ar
  15       14       15 ar
  16       15        9 ar
  17        2       16 1
  18        7       17 1
  19        1       18 1
  20        1       19 1
  21        1       20 1
  22        3       21 1
  23        3       22 1
  24        4       23 1
  25        4       24 1
  26        5       25 1
  27        5       26 1
  28        6       27 1
  29        6       28 1
  30       10       29 1
  31       11       30 1
  32       14       31 1

@<TRIPOS>MOLECULE

  31   32
SMALL
USER_CHARGES
@<TRIPOS>ATOM
   1 C1          -1.3697    -0.5447     0.0068 C.3          1    LIG   0.0000
   2 C2          -0.2333     0.2906     0.5751 C.3          1    LIG   0.0000
   3 C3           0.8561    -0.6720     1.0245 C.3          1    LIG   0.0000
   4 C4           2.2022     0.0350     1.0556 C.3          1    LIG   0.0000
   5 C5           2.0401     1.5230     1.3270 C.3          1    LIG   0.0000
   6 C6           1.2794     2.2212     0.2087 C.3          1    LIG   0.0000
   7 C7           0.3380     1.2370    -0.4670 C.3          1    LIG   0.0000
   8 S8          -0.9644     2.1959    -1.2806 S.3          1    LIG   0.0000
   9 C9          -2.1743     2.3247    -0.0367 C.ar         1    LIG   0.0000
  10 C10         -2.2486     3.5066     0.6930 C.ar         1    LIG   0.0000
  11 C11         -3.2095     3.6259     1.6911 C.ar         1    LIG   0.0000
  12 C12         -4.0799     2.5715     1.9481 C.ar         1    LIG   0.0000
  13 Cl13        -5.3115     2.7229     3.2258 Cl           1    LIG   0.0000
  14 C14         -3.9555     1.4154     1.1843 C.ar         1    LIG   0.0000
  15 N15         -3.0220     1.3183     0.2253 N.ar         1    LIG   0.0000
  16 H           -0.5624     0.8152     1.3603 H            1    LIG   0.0000
  17 H            0.8420     0.7117    -1.1527 H            1    LIG   0.0000
  18 H           -1.7220    -1.1549     0.7164 H            1    LIG   0.0000
  19 H           -2.1023     0.0590    -0.3075 H            1    LIG   0.0000
  20 H           -1.0321    -1.0876    -0.7621 H            1    LIG   0.0000
  21 H            0.9014    -1.4407     0.3864 H            1    LIG   0.0000
  22 H            0.6400    -1.0112     1.9400 H            1    LIG   0.0000
  23 H            2.6547    -0.0874     0.1723 H            1    LIG   0.0000
  24 H            2.7651    -0.3682     1.7771 H            1    LIG   0.0000
  25 H            1.5386     1.6431     2.1838 H            1    LIG   0.0000
  26 H            2.9462     1.9376     1.4103 H            1    LIG   0.0000
  27 H            0.7496     2.9787     0.5903 H            1    LIG   0.0000
  28 H            1.9291     2.5746    -0.4643 H            1    LIG   0.0000
  29 H           -1.6196     4.2603     0.5024 H            1    LIG   0.0000
  30 H           -3.2748     4.4695     2.2240 H            1    LIG   0.0000
  31 H           -4.5708     0.6453     1.3524 H            1    LIG   0.0000
@<TRIPOS>BOND
   1        1        2 1
   2        2        3 1
   3        3        4 1
   4        4        5 1
   5        5        6 1
   6        6        7 1
   7        7        2 1
   8        7        8 1
   9        8        9 1
  10        9       10 ar
  11       10       11 ar
  12       11       12 ar
  13       12       13 1
  14       12       14 ar
  15       14       15 ar
  16       15        9 ar
  17        2       16 1
  18        7       17 1
  19        1       18 1
  20        1       19 1
  21        1       20 1
  22        3       21 1
  23        3       22 1
  24        4       23 1
  25        4       24 1
  26        5       25 1
  27        5       26 1
  28        6       27 1
  29        6       28 1
  30       10       29 1
  31       11       30 1
  32       14       31 1

