@<TRIPOS>MOLECULE
*****
 31 32 0 0 0
SMALL
USER_CHARGES

@<TRIPOS>ATOM
      1 C1          1.5298    2.1029    2.5122 C.3     1  LIG1        0.0000
      2 C2          2.1464    1.5426    1.2386 C.3     1  LIG1        0.0000
      3 C3          2.1618    0.0212    1.2597 C.3     1  LIG1        0.0000
      4 C4          0.7590   -0.5677    1.2092 C.3     1  LIG1        0.0000
      5 C5         -0.0433   -0.0262    0.0343 C.3     1  LIG1        0.0000
      6 C6         -0.0085    1.4948   -0.0337 C.3     1  LIG1        0.0000
      7 C7          1.4114    2.0406    0.0034 C.3     1  LIG1        0.0000
      8 S8          2.2713    1.5659   -1.5181 S.3     1  LIG1        0.0000
      9 C9          2.6228    3.1042   -2.2512 C.ar    1  LIG1        0.0000
     10 C10         2.2161    4.2592   -1.5912 C.ar    1  LIG1        0.0000
     11 C11         2.4887    5.4968   -2.1636 C.ar    1  LIG1        0.0000
     12 C12         3.1599    5.5678   -3.3801 C.ar    1  LIG1        0.0000
     13 Cl13        3.5104    7.1522   -4.1143 Cl      1  LIG1        0.0000
     14 C14         3.5407    4.3773   -3.9911 C.ar    1  LIG1        0.0000
     15 N15         3.2689    3.1921   -3.4238 N.ar    1  LIG1        0.0000
     16 H           3.0927    1.8616    1.1860 H       1  LIG1        0.0000
     17 H           1.3659    3.0388    0.0430 H       1  LIG1        0.0000
     18 H           2.0327    1.7590    3.3052 H       1  LIG1        0.0000
     19 H           1.5779    3.1015    2.4944 H       1  LIG1        0.0000
     20 H           0.5738    1.8162    2.5737 H       1  LIG1        0.0000
     21 H           2.6097   -0.2849    2.0997 H       1  LIG1        0.0000
     22 H           2.6776   -0.3068    0.4683 H       1  LIG1        0.0000
     23 H           0.2822   -0.3400    2.0583 H       1  LIG1        0.0000
     24 H           0.8287   -1.5615    1.1223 H       1  LIG1        0.0000
     25 H           0.3379   -0.3953   -0.8134 H       1  LIG1        0.0000
     26 H          -0.9936   -0.3227    0.1292 H       1  LIG1        0.0000
     27 H          -0.4442    1.7890   -0.8844 H       1  LIG1        0.0000
     28 H          -0.5155    1.8635    0.7454 H       1  LIG1        0.0000
     29 H           1.7341    4.2003   -0.7170 H       1  LIG1        0.0000
     30 H           2.2023    6.3357   -1.7008 H       1  LIG1        0.0000
     31 H           4.0242    4.4053   -4.8660 H       1  LIG1        0.0000
@<TRIPOS>BOND
     1     1     2    1
     2     2     3    1
     3     3     4    1
     4     4     5    1
     5     5     6    1
     6     6     7    1
     7     7     2    1
     8     7     8    1
     9     8     9    1
    10     9    10   ar
    11    10    11   ar
    12    11    12   ar
    13    12    13    1
    14    12    14   ar
    15    14    15   ar
    16    15     9   ar
    17     2    16    1
    18     7    17    1
    19     1    18    1
    20     1    19    1
    21     1    20    1
    22     3    21    1
    23     3    22    1
    24     4    23    1
    25     4    24    1
    26     5    25    1
    27     5    26    1
    28     6    27    1
    29     6    28    1
    30    10    29    1
    31    11    30    1
    32    14    31    1
