@<TRIPOS>MOLECULE
*****
 31 32 0 0 0
SMALL
USER_CHARGES

@<TRIPOS>ATOM
      1 C1         -1.3697   -0.5447    0.0068 C.3     1  LIG1        0.0000
      2 C2         -0.2333    0.2906    0.5751 C.3     1  LIG1        0.0000
      3 C3          0.8561   -0.6720    1.0245 C.3     1  LIG1        0.0000
      4 C4          2.2022    0.0350    1.0556 C.3     1  LIG1        0.0000
      5 C5          2.0401    1.5230    1.3270 C.3     1  LIG1        0.0000
      6 C6          1.2794    2.2212    0.2087 C.3     1  LIG1        0.0000
      7 C7          0.3380    1.2370   -0.4670 C.3     1  LIG1        0.0000
      8 S8         -0.9644    2.1959   -1.2806 S.3     1  LIG1        0.0000
      9 C9         -2.1743    2.3247   -0.0367 C.ar    1  LIG1        0.0000
     10 C10        -3.2662    1.4642   -0.0853 C.ar    1  LIG1        0.0000
     11 C11        -4.2425    1.5541    0.9008 C.ar    1  LIG1        0.0000
     12 C12        -4.1191    2.4953    1.9179 C.ar    1  LIG1        0.0000
     13 Cl13       -5.3684    2.6113    3.1820 Cl      1  LIG1        0.0000
     14 C14        -3.0041    3.3274    1.9117 C.ar    1  LIG1        0.0000
     15 N15        -2.0721    3.2262    0.9517 N.ar    1  LIG1        0.0000
     16 H          -0.5624    0.8152    1.3603 H       1  LIG1        0.0000
     17 H           0.8420    0.7117   -1.1527 H       1  LIG1        0.0000
     18 H          -1.7220   -1.1549    0.7164 H       1  LIG1        0.0000
     19 H          -2.1023    0.0590   -0.3075 H       1  LIG1        0.0000
     20 H          -1.0321   -1.0876   -0.7621 H       1  LIG1        0.0000
     21 H           0.9014   -1.4407    0.3864 H       1  LIG1        0.0000
     22 H           0.6400   -1.0112    1.9400 H       1  LIG1        0.0000
     23 H           2.6547   -0.0874    0.1723 H       1  LIG1        0.0000
     24 H           2.7651   -0.3682    1.7771 H       1  LIG1        0.0000
     25 H           1.5386    1.6431    2.1838 H       1  LIG1        0.0000
     26 H           2.9462    1.9376    1.4103 H       1  LIG1        0.0000
     27 H           0.7496    2.9787    0.5903 H       1  LIG1        0.0000
     28 H           1.9291    2.5746   -0.4643 H       1  LIG1        0.0000
     29 H          -3.3480    0.7901   -0.8194 H       1  LIG1        0.0000
     30 H          -5.0332    0.9423    0.8789 H       1  LIG1        0.0000
     31 H          -2.8957    4.0110    2.6334 H       1  LIG1        0.0000
@<TRIPOS>BOND
     1     1     2    1
     2     2     3    1
     3     3     4    1
     4     4     5    1
     5     5     6    1
     6     6     7    1
     7     7     2    1
     8     7     8    1
     9     8     9    1
    10     9    10   ar
    11    10    11   ar
    12    11    12   ar
    13    12    13    1
    14    12    14   ar
    15    14    15   ar
    16    15     9   ar
    17     2    16    1
    18     7    17    1
    19     1    18    1
    20     1    19    1
    21     1    20    1
    22     3    21    1
    23     3    22    1
    24     4    23    1
    25     4    24    1
    26     5    25    1
    27     5    26    1
    28     6    27    1
    29     6    28    1
    30    10    29    1
    31    11    30    1
    32    14    31    1
