@<TRIPOS>MOLECULE
*****
 31 32 0 0 0
SMALL
USER_CHARGES

@<TRIPOS>ATOM
      1 C1          1.4166    3.5835    0.0091 C.3     1  LIG1        0.0000
      2 C2          1.4173    2.0637   -0.0017 C.3     1  LIG1        0.0000
      3 C3          2.1576    1.5478    1.2221 C.3     1  LIG1        0.0000
      4 C4          2.1704    0.0278    1.2370 C.3     1  LIG1        0.0000
      5 C5          0.7468   -0.5052    1.2358 C.3     1  LIG1        0.0000
      6 C6         -0.0006    0.0050    0.0144 C.3     1  LIG1        0.0000
      7 C7         -0.0049    1.5251    0.0004 C.3     1  LIG1        0.0000
      8 S8         -0.9131    2.1133   -1.4506 S.3     1  LIG1        0.0000
      9 C9         -1.3459    0.6318   -2.2538 C.ar    1  LIG1        0.0000
     10 C10        -2.6363    0.1406   -2.0839 C.ar    1  LIG1        0.0000
     11 C11        -2.9985   -1.0426   -2.7185 C.ar    1  LIG1        0.0000
     12 C12        -2.0753   -1.7179   -3.5104 C.ar    1  LIG1        0.0000
     13 Cl13       -2.5379   -3.2331   -4.3243 Cl      1  LIG1        0.0000
     14 C14        -0.8006   -1.1760   -3.6412 C.ar    1  LIG1        0.0000
     15 N15        -0.4690   -0.0332   -3.0212 N.ar    1  LIG1        0.0000
     16 H           1.8859    1.7437   -0.8252 H       1  LIG1        0.0000
     17 H          -0.4699    1.8516    0.8233 H       1  LIG1        0.0000
     18 H           2.3592    3.9173    0.0075 H       1  LIG1        0.0000
     19 H           0.9416    3.9225   -0.8030 H       1  LIG1        0.0000
     20 H           0.9485    3.9108    0.8300 H       1  LIG1        0.0000
     21 H           1.7012    1.8809    2.0471 H       1  LIG1        0.0000
     22 H           3.0991    1.8844    1.2030 H       1  LIG1        0.0000
     23 H           2.6426   -0.2912    2.0588 H       1  LIG1        0.0000
     24 H           2.6499   -0.3072    0.4259 H       1  LIG1        0.0000
     25 H           0.7677   -1.5048    1.2172 H       1  LIG1        0.0000
     26 H           0.2775   -0.1970    2.0634 H       1  LIG1        0.0000
     27 H           0.4491   -0.3318   -0.8129 H       1  LIG1        0.0000
     28 H          -0.9431   -0.3280    0.0406 H       1  LIG1        0.0000
     29 H          -3.2944    0.6316   -1.5132 H       1  LIG1        0.0000
     30 H          -3.9225   -1.4080   -2.6056 H       1  LIG1        0.0000
     31 H          -0.1215   -1.6452   -4.2057 H       1  LIG1        0.0000
@<TRIPOS>BOND
     1     1     2    1
     2     2     3    1
     3     3     4    1
     4     4     5    1
     5     5     6    1
     6     6     7    1
     7     7     2    1
     8     7     8    1
     9     8     9    1
    10     9    10   ar
    11    10    11   ar
    12    11    12   ar
    13    12    13    1
    14    12    14   ar
    15    14    15   ar
    16    15     9   ar
    17     2    16    1
    18     7    17    1
    19     1    18    1
    20     1    19    1
    21     1    20    1
    22     3    21    1
    23     3    22    1
    24     4    23    1
    25     4    24    1
    26     5    25    1
    27     5    26    1
    28     6    27    1
    29     6    28    1
    30    10    29    1
    31    11    30    1
    32    14    31    1
