@<TRIPOS>MOLECULE

  25   26
SMALL
USER_CHARGES
@<TRIPOS>ATOM
   1 C1          -2.7073     1.2287     0.0343 C.3          1    LIG   0.0000
   2 S2          -1.3614     2.4390     0.0438 S.3          1    LIG   0.0000
   3 C3           0.0568     1.4301     0.0135 C.2          1    LIG   0.0000
   4 N4           1.2999     1.8390     0.0098 N.2          1    LIG   0.0000
   5 N5           2.1094     0.7975    -0.0173 N.2          1    LIG   0.0000
   6 C6           1.4026    -0.3067    -0.0285 C.2          1    LIG   0.0000
   7 C7           1.9405    -1.7264    -0.0615 C.3          1    LIG   0.0000
   8 N8           0.0946     0.0700    -0.0089 N.pl3        1    LIG   0.0000
   9 C9          -1.0118    -0.7882    -0.0119 C.ar         1    LIG   0.0000
  10 C10         -1.5433    -1.2303     1.1952 C.ar         1    LIG   0.0000
  11 C11         -2.6419    -2.0832     1.1827 C.ar         1    LIG   0.0000
  12 C12         -3.1977    -2.4851    -0.0281 C.ar         1    LIG   0.0000
  13 C13         -2.6598    -2.0379    -1.2305 C.ar         1    LIG   0.0000
  14 C14         -1.5605    -1.1851    -1.2270 C.ar         1    LIG   0.0000
  15 H           -3.5855     1.7067     0.0504 H            1    LIG   0.0000
  16 H           -2.6471     0.6698    -0.7928 H            1    LIG   0.0000
  17 H           -2.6327     0.6410     0.8399 H            1    LIG   0.0000
  18 H            1.1770    -2.3722    -0.0635 H            1    LIG   0.0000
  19 H            2.4888    -1.8560    -0.8877 H            1    LIG   0.0000
  20 H            2.5099    -1.8860     0.7449 H            1    LIG   0.0000
  21 H           -1.1400    -0.9380     2.0623 H            1    LIG   0.0000
  22 H           -3.0326    -2.4077     2.0441 H            1    LIG   0.0000
  23 H           -3.9876    -3.0984    -0.0339 H            1    LIG   0.0000
  24 H           -3.0634    -2.3295    -2.0977 H            1    LIG   0.0000
  25 H           -1.1693    -0.8611    -2.0883 H            1    LIG   0.0000
@<TRIPOS>BOND
   1        1        2 1
   2        2        3 1
   3        3        4 2
   4        4        5 1
   5        5        6 2
   6        6        7 1
   7        6        8 1
   8        8        3 1
   9        8        9 1
  10        9       10 ar
  11       10       11 ar
  12       11       12 ar
  13       12       13 ar
  14       13       14 ar
  15       14        9 ar
  16        1       15 1
  17        1       16 1
  18        1       17 1
  19        7       18 1
  20        7       19 1
  21        7       20 1
  22       10       21 1
  23       11       22 1
  24       12       23 1
  25       13       24 1
  26       14       25 1

@<TRIPOS>MOLECULE

  25   26
SMALL
USER_CHARGES
@<TRIPOS>ATOM
   1 C1          -0.6590     4.1069     0.0671 C.3          1    LIG   0.0000
   2 S2          -1.3614     2.4390     0.0438 S.3          1    LIG   0.0000
   3 C3           0.0568     1.4301     0.0135 C.2          1    LIG   0.0000
   4 N4           1.2999     1.8390     0.0098 N.2          1    LIG   0.0000
   5 N5           2.1094     0.7975    -0.0173 N.2          1    LIG   0.0000
   6 C6           1.4026    -0.3067    -0.0285 C.2          1    LIG   0.0000
   7 C7           1.9405    -1.7264    -0.0615 C.3          1    LIG   0.0000
   8 N8           0.0946     0.0700    -0.0089 N.pl3        1    LIG   0.0000
   9 C9          -1.0118    -0.7882    -0.0119 C.ar         1    LIG   0.0000
  10 C10         -1.5433    -1.2303     1.1952 C.ar         1    LIG   0.0000
  11 C11         -2.6419    -2.0832     1.1827 C.ar         1    LIG   0.0000
  12 C12         -3.1977    -2.4851    -0.0281 C.ar         1    LIG   0.0000
  13 C13         -2.6598    -2.0379    -1.2305 C.ar         1    LIG   0.0000
  14 C14         -1.5605    -1.1851    -1.2270 C.ar         1    LIG   0.0000
  15 H           -1.3985     4.7798     0.0855 H            1    LIG   0.0000
  16 H           -0.0880     4.2168     0.8807 H            1    LIG   0.0000
  17 H           -0.1023     4.2457    -0.7520 H            1    LIG   0.0000
  18 H            1.1770    -2.3722    -0.0635 H            1    LIG   0.0000
  19 H            2.4888    -1.8560    -0.8877 H            1    LIG   0.0000
  20 H            2.5099    -1.8860     0.7449 H            1    LIG   0.0000
  21 H           -1.1400    -0.9380     2.0623 H            1    LIG   0.0000
  22 H           -3.0326    -2.4077     2.0441 H            1    LIG   0.0000
  23 H           -3.9876    -3.0984    -0.0339 H            1    LIG   0.0000
  24 H           -3.0634    -2.3295    -2.0977 H            1    LIG   0.0000
  25 H           -1.1693    -0.8611    -2.0883 H            1    LIG   0.0000
@<TRIPOS>BOND
   1        1        2 1
   2        2        3 1
   3        3        4 2
   4        4        5 1
   5        5        6 2
   6        6        7 1
   7        6        8 1
   8        8        3 1
   9        8        9 1
  10        9       10 ar
  11       10       11 ar
  12       11       12 ar
  13       12       13 ar
  14       13       14 ar
  15       14        9 ar
  16        1       15 1
  17        1       16 1
  18        1       17 1
  19        7       18 1
  20        7       19 1
  21        7       20 1
  22       10       21 1
  23       11       22 1
  24       12       23 1
  25       13       24 1
  26       14       25 1

@<TRIPOS>MOLECULE

  25   26
SMALL
USER_CHARGES
@<TRIPOS>ATOM
   1 C1          -0.6590     4.1069     0.0671 C.3          1    LIG   0.0000
   2 S2          -1.3614     2.4390     0.0438 S.3          1    LIG   0.0000
   3 C3           0.0568     1.4301     0.0135 C.2          1    LIG   0.0000
   4 N4           1.2999     1.8390     0.0098 N.2          1    LIG   0.0000
   5 N5           2.1094     0.7975    -0.0173 N.2          1    LIG   0.0000
   6 C6           1.4026    -0.3067    -0.0285 C.2          1    LIG   0.0000
   7 C7           1.9405    -1.7264    -0.0615 C.3          1    LIG   0.0000
   8 N8           0.0946     0.0700    -0.0089 N.pl3        1    LIG   0.0000
   9 C9          -1.0118    -0.7882    -0.0119 C.ar         1    LIG   0.0000
  10 C10         -1.9154    -0.7501     1.0450 C.ar         1    LIG   0.0000
  11 C11         -3.0111    -1.6067     1.0340 C.ar         1    LIG   0.0000
  12 C12         -3.1946    -2.4891    -0.0263 C.ar         1    LIG   0.0000
  13 C13         -2.2861    -2.5202    -1.0792 C.ar         1    LIG   0.0000
  14 C14         -1.1870    -1.6672    -1.0758 C.ar         1    LIG   0.0000
  15 H           -1.3985     4.7798     0.0855 H            1    LIG   0.0000
  16 H           -0.0880     4.2168     0.8807 H            1    LIG   0.0000
  17 H           -0.1023     4.2457    -0.7520 H            1    LIG   0.0000
  18 H            1.1770    -2.3722    -0.0635 H            1    LIG   0.0000
  19 H            2.4888    -1.8560    -0.8877 H            1    LIG   0.0000
  20 H            2.5099    -1.8860     0.7449 H            1    LIG   0.0000
  21 H           -1.7787    -0.1138     1.8042 H            1    LIG   0.0000
  22 H           -3.6673    -1.5885     1.7884 H            1    LIG   0.0000
  23 H           -3.9834    -3.1037    -0.0313 H            1    LIG   0.0000
  24 H           -2.4230    -3.1559    -1.8389 H            1    LIG   0.0000
  25 H           -0.5303    -1.6858    -1.8297 H            1    LIG   0.0000
@<TRIPOS>BOND
   1        1        2 1
   2        2        3 1
   3        3        4 2
   4        4        5 1
   5        5        6 2
   6        6        7 1
   7        6        8 1
   8        8        3 1
   9        8        9 1
  10        9       10 ar
  11       10       11 ar
  12       11       12 ar
  13       12       13 ar
  14       13       14 ar
  15       14        9 ar
  16        1       15 1
  17        1       16 1
  18        1       17 1
  19        7       18 1
  20        7       19 1
  21        7       20 1
  22       10       21 1
  23       11       22 1
  24       12       23 1
  25       13       24 1
  26       14       25 1

@<TRIPOS>MOLECULE

  25   26
SMALL
USER_CHARGES
@<TRIPOS>ATOM
   1 C1          -0.6590     4.1069     0.0671 C.3          1    LIG   0.0000
   2 S2          -1.3614     2.4390     0.0438 S.3          1    LIG   0.0000
   3 C3           0.0568     1.4301     0.0135 C.2          1    LIG   0.0000
   4 N4           1.2999     1.8390     0.0098 N.2          1    LIG   0.0000
   5 N5           2.1094     0.7975    -0.0173 N.2          1    LIG   0.0000
   6 C6           1.4026    -0.3067    -0.0285 C.2          1    LIG   0.0000
   7 C7           1.9405    -1.7264    -0.0615 C.3          1    LIG   0.0000
   8 N8           0.0946     0.0700    -0.0089 N.pl3        1    LIG   0.0000
   9 C9          -1.0118    -0.7882    -0.0119 C.ar         1    LIG   0.0000
  10 C10         -1.1746    -1.7050     1.0215 C.ar         1    LIG   0.0000
  11 C11         -2.2761    -2.5541     1.0100 C.ar         1    LIG   0.0000
  12 C12         -3.2009    -2.4810    -0.0272 C.ar         1    LIG   0.0000
  13 C13         -3.0303    -1.5609    -1.0565 C.ar         1    LIG   0.0000
  14 C14         -1.9309    -0.7083    -1.0530 C.ar         1    LIG   0.0000
  15 H           -1.3985     4.7798     0.0855 H            1    LIG   0.0000
  16 H           -0.0880     4.2168     0.8807 H            1    LIG   0.0000
  17 H           -0.1023     4.2457    -0.7520 H            1    LIG   0.0000
  18 H            1.1770    -2.3722    -0.0635 H            1    LIG   0.0000
  19 H            2.4888    -1.8560    -0.8877 H            1    LIG   0.0000
  20 H            2.5099    -1.8860     0.7449 H            1    LIG   0.0000
  21 H           -0.5070    -1.7530     1.7645 H            1    LIG   0.0000
  22 H           -2.4036    -3.2174     1.7474 H            1    LIG   0.0000
  23 H           -3.9919    -3.0928    -0.0327 H            1    LIG   0.0000
  24 H           -3.6982    -1.5123    -1.7992 H            1    LIG   0.0000
  25 H           -1.8028    -0.0454    -1.7907 H            1    LIG   0.0000
@<TRIPOS>BOND
   1        1        2 1
   2        2        3 1
   3        3        4 2
   4        4        5 1
   5        5        6 2
   6        6        7 1
   7        6        8 1
   8        8        3 1
   9        8        9 1
  10        9       10 ar
  11       10       11 ar
  12       11       12 ar
  13       12       13 ar
  14       13       14 ar
  15       14        9 ar
  16        1       15 1
  17        1       16 1
  18        1       17 1
  19        7       18 1
  20        7       19 1
  21        7       20 1
  22       10       21 1
  23       11       22 1
  24       12       23 1
  25       13       24 1
  26       14       25 1

@<TRIPOS>MOLECULE

  25   26
SMALL
USER_CHARGES
@<TRIPOS>ATOM
   1 C1          -1.6986     2.6990    -1.7154 C.3          1    LIG   0.0000
   2 S2          -1.3614     2.4390     0.0438 S.3          1    LIG   0.0000
   3 C3           0.0568     1.4301     0.0135 C.2          1    LIG   0.0000
   4 N4           1.2999     1.8390     0.0098 N.2          1    LIG   0.0000
   5 N5           2.1094     0.7975    -0.0173 N.2          1    LIG   0.0000
   6 C6           1.4026    -0.3067    -0.0285 C.2          1    LIG   0.0000
   7 C7           1.9405    -1.7264    -0.0615 C.3          1    LIG   0.0000
   8 N8           0.0946     0.0700    -0.0089 N.pl3        1    LIG   0.0000
   9 C9          -1.0118    -0.7882    -0.0119 C.ar         1    LIG   0.0000
  10 C10         -1.5433    -1.2303     1.1952 C.ar         1    LIG   0.0000
  11 C11         -2.6419    -2.0832     1.1827 C.ar         1    LIG   0.0000
  12 C12         -3.1977    -2.4851    -0.0281 C.ar         1    LIG   0.0000
  13 C13         -2.6598    -2.0379    -1.2305 C.ar         1    LIG   0.0000
  14 C14         -1.5605    -1.1851    -1.2270 C.ar         1    LIG   0.0000
  15 H           -2.5086     3.2766    -1.8177 H            1    LIG   0.0000
  16 H           -0.9134     3.1473    -2.1426 H            1    LIG   0.0000
  17 H           -1.8602     1.8169    -2.1578 H            1    LIG   0.0000
  18 H            1.1770    -2.3722    -0.0635 H            1    LIG   0.0000
  19 H            2.4888    -1.8560    -0.8877 H            1    LIG   0.0000
  20 H            2.5099    -1.8860     0.7449 H            1    LIG   0.0000
  21 H           -1.1400    -0.9380     2.0623 H            1    LIG   0.0000
  22 H           -3.0326    -2.4077     2.0441 H            1    LIG   0.0000
  23 H           -3.9876    -3.0984    -0.0339 H            1    LIG   0.0000
  24 H           -3.0634    -2.3295    -2.0977 H            1    LIG   0.0000
  25 H           -1.1693    -0.8611    -2.0883 H            1    LIG   0.0000
@<TRIPOS>BOND
   1        1        2 1
   2        2        3 1
   3        3        4 2
   4        4        5 1
   5        5        6 2
   6        6        7 1
   7        6        8 1
   8        8        3 1
   9        8        9 1
  10        9       10 ar
  11       10       11 ar
  12       11       12 ar
  13       12       13 ar
  14       13       14 ar
  15       14        9 ar
  16        1       15 1
  17        1       16 1
  18        1       17 1
  19        7       18 1
  20        7       19 1
  21        7       20 1
  22       10       21 1
  23       11       22 1
  24       12       23 1
  25       13       24 1
  26       14       25 1

@<TRIPOS>MOLECULE

  25   26
SMALL
USER_CHARGES
@<TRIPOS>ATOM
   1 C1          -1.6986     2.6990    -1.7154 C.3          1    LIG   0.0000
   2 S2          -1.3614     2.4390     0.0438 S.3          1    LIG   0.0000
   3 C3           0.0568     1.4301     0.0135 C.2          1    LIG   0.0000
   4 N4           1.2999     1.8390     0.0098 N.2          1    LIG   0.0000
   5 N5           2.1094     0.7975    -0.0173 N.2          1    LIG   0.0000
   6 C6           1.4026    -0.3067    -0.0285 C.2          1    LIG   0.0000
   7 C7           1.9405    -1.7264    -0.0615 C.3          1    LIG   0.0000
   8 N8           0.0946     0.0700    -0.0089 N.pl3        1    LIG   0.0000
   9 C9          -1.0118    -0.7882    -0.0119 C.ar         1    LIG   0.0000
  10 C10         -1.9154    -0.7501     1.0450 C.ar         1    LIG   0.0000
  11 C11         -3.0111    -1.6067     1.0340 C.ar         1    LIG   0.0000
  12 C12         -3.1946    -2.4891    -0.0263 C.ar         1    LIG   0.0000
  13 C13         -2.2861    -2.5202    -1.0792 C.ar         1    LIG   0.0000
  14 C14         -1.1870    -1.6672    -1.0758 C.ar         1    LIG   0.0000
  15 H           -2.5086     3.2766    -1.8177 H            1    LIG   0.0000
  16 H           -0.9134     3.1473    -2.1426 H            1    LIG   0.0000
  17 H           -1.8602     1.8169    -2.1578 H            1    LIG   0.0000
  18 H            1.1770    -2.3722    -0.0635 H            1    LIG   0.0000
  19 H            2.4888    -1.8560    -0.8877 H            1    LIG   0.0000
  20 H            2.5099    -1.8860     0.7449 H            1    LIG   0.0000
  21 H           -1.7787    -0.1138     1.8042 H            1    LIG   0.0000
  22 H           -3.6673    -1.5885     1.7884 H            1    LIG   0.0000
  23 H           -3.9834    -3.1037    -0.0313 H            1    LIG   0.0000
  24 H           -2.4230    -3.1559    -1.8389 H            1    LIG   0.0000
  25 H           -0.5303    -1.6858    -1.8297 H            1    LIG   0.0000
@<TRIPOS>BOND
   1        1        2 1
   2        2        3 1
   3        3        4 2
   4        4        5 1
   5        5        6 2
   6        6        7 1
   7        6        8 1
   8        8        3 1
   9        8        9 1
  10        9       10 ar
  11       10       11 ar
  12       11       12 ar
  13       12       13 ar
  14       13       14 ar
  15       14        9 ar
  16        1       15 1
  17        1       16 1
  18        1       17 1
  19        7       18 1
  20        7       19 1
  21        7       20 1
  22       10       21 1
  23       11       22 1
  24       12       23 1
  25       13       24 1
  26       14       25 1

@<TRIPOS>MOLECULE

  25   26
SMALL
USER_CHARGES
@<TRIPOS>ATOM
   1 C1          -1.6986     2.6990    -1.7154 C.3          1    LIG   0.0000
   2 S2          -1.3614     2.4390     0.0438 S.3          1    LIG   0.0000
   3 C3           0.0568     1.4301     0.0135 C.2          1    LIG   0.0000
   4 N4           1.2999     1.8390     0.0098 N.2          1    LIG   0.0000
   5 N5           2.1094     0.7975    -0.0173 N.2          1    LIG   0.0000
   6 C6           1.4026    -0.3067    -0.0285 C.2          1    LIG   0.0000
   7 C7           1.9405    -1.7264    -0.0615 C.3          1    LIG   0.0000
   8 N8           0.0946     0.0700    -0.0089 N.pl3        1    LIG   0.0000
   9 C9          -1.0118    -0.7882    -0.0119 C.ar         1    LIG   0.0000
  10 C10         -1.1746    -1.7050     1.0215 C.ar         1    LIG   0.0000
  11 C11         -2.2761    -2.5541     1.0100 C.ar         1    LIG   0.0000
  12 C12         -3.2009    -2.4810    -0.0272 C.ar         1    LIG   0.0000
  13 C13         -3.0303    -1.5609    -1.0565 C.ar         1    LIG   0.0000
  14 C14         -1.9309    -0.7083    -1.0530 C.ar         1    LIG   0.0000
  15 H           -2.5086     3.2766    -1.8177 H            1    LIG   0.0000
  16 H           -0.9134     3.1473    -2.1426 H            1    LIG   0.0000
  17 H           -1.8602     1.8169    -2.1578 H            1    LIG   0.0000
  18 H            1.1770    -2.3722    -0.0635 H            1    LIG   0.0000
  19 H            2.4888    -1.8560    -0.8877 H            1    LIG   0.0000
  20 H            2.5099    -1.8860     0.7449 H            1    LIG   0.0000
  21 H           -0.5070    -1.7530     1.7645 H            1    LIG   0.0000
  22 H           -2.4036    -3.2174     1.7474 H            1    LIG   0.0000
  23 H           -3.9919    -3.0928    -0.0327 H            1    LIG   0.0000
  24 H           -3.6982    -1.5123    -1.7992 H            1    LIG   0.0000
  25 H           -1.8028    -0.0454    -1.7907 H            1    LIG   0.0000
@<TRIPOS>BOND
   1        1        2 1
   2        2        3 1
   3        3        4 2
   4        4        5 1
   5        5        6 2
   6        6        7 1
   7        6        8 1
   8        8        3 1
   9        8        9 1
  10        9       10 ar
  11       10       11 ar
  12       11       12 ar
  13       12       13 ar
  14       13       14 ar
  15       14        9 ar
  16        1       15 1
  17        1       16 1
  18        1       17 1
  19        7       18 1
  20        7       19 1
  21        7       20 1
  22       10       21 1
  23       11       22 1
  24       12       23 1
  25       13       24 1
  26       14       25 1

@<TRIPOS>MOLECULE

  25   26
SMALL
USER_CHARGES
@<TRIPOS>ATOM
   1 C1          -1.6676     2.6366     1.8168 C.3          1    LIG   0.0000
   2 S2          -1.3614     2.4390     0.0438 S.3          1    LIG   0.0000
   3 C3           0.0568     1.4301     0.0135 C.2          1    LIG   0.0000
   4 N4           1.2999     1.8390     0.0098 N.2          1    LIG   0.0000
   5 N5           2.1094     0.7975    -0.0173 N.2          1    LIG   0.0000
   6 C6           1.4026    -0.3067    -0.0285 C.2          1    LIG   0.0000
   7 C7           1.9405    -1.7264    -0.0615 C.3          1    LIG   0.0000
   8 N8           0.0946     0.0700    -0.0089 N.pl3        1    LIG   0.0000
   9 C9          -1.0118    -0.7882    -0.0119 C.ar         1    LIG   0.0000
  10 C10         -1.5433    -1.2303     1.1952 C.ar         1    LIG   0.0000
  11 C11         -2.6419    -2.0832     1.1827 C.ar         1    LIG   0.0000
  12 C12         -3.1977    -2.4851    -0.0281 C.ar         1    LIG   0.0000
  13 C13         -2.6598    -2.0379    -1.2305 C.ar         1    LIG   0.0000
  14 C14         -1.5605    -1.1851    -1.2270 C.ar         1    LIG   0.0000
  15 H           -2.4754     3.2099     1.9537 H            1    LIG   0.0000
  16 H           -1.8216     1.7393     2.2305 H            1    LIG   0.0000
  17 H           -0.8748     3.0698     2.2457 H            1    LIG   0.0000
  18 H            1.1770    -2.3722    -0.0635 H            1    LIG   0.0000
  19 H            2.4888    -1.8560    -0.8877 H            1    LIG   0.0000
  20 H            2.5099    -1.8860     0.7449 H            1    LIG   0.0000
  21 H           -1.1400    -0.9380     2.0623 H            1    LIG   0.0000
  22 H           -3.0326    -2.4077     2.0441 H            1    LIG   0.0000
  23 H           -3.9876    -3.0984    -0.0339 H            1    LIG   0.0000
  24 H           -3.0634    -2.3295    -2.0977 H            1    LIG   0.0000
  25 H           -1.1693    -0.8611    -2.0883 H            1    LIG   0.0000
@<TRIPOS>BOND
   1        1        2 1
   2        2        3 1
   3        3        4 2
   4        4        5 1
   5        5        6 2
   6        6        7 1
   7        6        8 1
   8        8        3 1
   9        8        9 1
  10        9       10 ar
  11       10       11 ar
  12       11       12 ar
  13       12       13 ar
  14       13       14 ar
  15       14        9 ar
  16        1       15 1
  17        1       16 1
  18        1       17 1
  19        7       18 1
  20        7       19 1
  21        7       20 1
  22       10       21 1
  23       11       22 1
  24       12       23 1
  25       13       24 1
  26       14       25 1

@<TRIPOS>MOLECULE

  25   26
SMALL
USER_CHARGES
@<TRIPOS>ATOM
   1 C1          -1.6676     2.6366     1.8168 C.3          1    LIG   0.0000
   2 S2          -1.3614     2.4390     0.0438 S.3          1    LIG   0.0000
   3 C3           0.0568     1.4301     0.0135 C.2          1    LIG   0.0000
   4 N4           1.2999     1.8390     0.0098 N.2          1    LIG   0.0000
   5 N5           2.1094     0.7975    -0.0173 N.2          1    LIG   0.0000
   6 C6           1.4026    -0.3067    -0.0285 C.2          1    LIG   0.0000
   7 C7           1.9405    -1.7264    -0.0615 C.3          1    LIG   0.0000
   8 N8           0.0946     0.0700    -0.0089 N.pl3        1    LIG   0.0000
   9 C9          -1.0118    -0.7882    -0.0119 C.ar         1    LIG   0.0000
  10 C10         -1.9154    -0.7501     1.0450 C.ar         1    LIG   0.0000
  11 C11         -3.0111    -1.6067     1.0340 C.ar         1    LIG   0.0000
  12 C12         -3.1946    -2.4891    -0.0263 C.ar         1    LIG   0.0000
  13 C13         -2.2861    -2.5202    -1.0792 C.ar         1    LIG   0.0000
  14 C14         -1.1870    -1.6672    -1.0758 C.ar         1    LIG   0.0000
  15 H           -2.4754     3.2099     1.9537 H            1    LIG   0.0000
  16 H           -1.8216     1.7393     2.2305 H            1    LIG   0.0000
  17 H           -0.8748     3.0698     2.2457 H            1    LIG   0.0000
  18 H            1.1770    -2.3722    -0.0635 H            1    LIG   0.0000
  19 H            2.4888    -1.8560    -0.8877 H            1    LIG   0.0000
  20 H            2.5099    -1.8860     0.7449 H            1    LIG   0.0000
  21 H           -1.7787    -0.1138     1.8042 H            1    LIG   0.0000
  22 H           -3.6673    -1.5885     1.7884 H            1    LIG   0.0000
  23 H           -3.9834    -3.1037    -0.0313 H            1    LIG   0.0000
  24 H           -2.4230    -3.1559    -1.8389 H            1    LIG   0.0000
  25 H           -0.5303    -1.6858    -1.8297 H            1    LIG   0.0000
@<TRIPOS>BOND
   1        1        2 1
   2        2        3 1
   3        3        4 2
   4        4        5 1
   5        5        6 2
   6        6        7 1
   7        6        8 1
   8        8        3 1
   9        8        9 1
  10        9       10 ar
  11       10       11 ar
  12       11       12 ar
  13       12       13 ar
  14       13       14 ar
  15       14        9 ar
  16        1       15 1
  17        1       16 1
  18        1       17 1
  19        7       18 1
  20        7       19 1
  21        7       20 1
  22       10       21 1
  23       11       22 1
  24       12       23 1
  25       13       24 1
  26       14       25 1

@<TRIPOS>MOLECULE

  25   26
SMALL
USER_CHARGES
@<TRIPOS>ATOM
   1 C1          -1.6676     2.6366     1.8168 C.3          1    LIG   0.0000
   2 S2          -1.3614     2.4390     0.0438 S.3          1    LIG   0.0000
   3 C3           0.0568     1.4301     0.0135 C.2          1    LIG   0.0000
   4 N4           1.2999     1.8390     0.0098 N.2          1    LIG   0.0000
   5 N5           2.1094     0.7975    -0.0173 N.2          1    LIG   0.0000
   6 C6           1.4026    -0.3067    -0.0285 C.2          1    LIG   0.0000
   7 C7           1.9405    -1.7264    -0.0615 C.3          1    LIG   0.0000
   8 N8           0.0946     0.0700    -0.0089 N.pl3        1    LIG   0.0000
   9 C9          -1.0118    -0.7882    -0.0119 C.ar         1    LIG   0.0000
  10 C10         -1.1746    -1.7050     1.0215 C.ar         1    LIG   0.0000
  11 C11         -2.2761    -2.5541     1.0100 C.ar         1    LIG   0.0000
  12 C12         -3.2009    -2.4810    -0.0272 C.ar         1    LIG   0.0000
  13 C13         -3.0303    -1.5609    -1.0565 C.ar         1    LIG   0.0000
  14 C14         -1.9309    -0.7083    -1.0530 C.ar         1    LIG   0.0000
  15 H           -2.4754     3.2099     1.9537 H            1    LIG   0.0000
  16 H           -1.8216     1.7393     2.2305 H            1    LIG   0.0000
  17 H           -0.8748     3.0698     2.2457 H            1    LIG   0.0000
  18 H            1.1770    -2.3722    -0.0635 H            1    LIG   0.0000
  19 H            2.4888    -1.8560    -0.8877 H            1    LIG   0.0000
  20 H            2.5099    -1.8860     0.7449 H            1    LIG   0.0000
  21 H           -0.5070    -1.7530     1.7645 H            1    LIG   0.0000
  22 H           -2.4036    -3.2174     1.7474 H            1    LIG   0.0000
  23 H           -3.9919    -3.0928    -0.0327 H            1    LIG   0.0000
  24 H           -3.6982    -1.5123    -1.7992 H            1    LIG   0.0000
  25 H           -1.8028    -0.0454    -1.7907 H            1    LIG   0.0000
@<TRIPOS>BOND
   1        1        2 1
   2        2        3 1
   3        3        4 2
   4        4        5 1
   5        5        6 2
   6        6        7 1
   7        6        8 1
   8        8        3 1
   9        8        9 1
  10        9       10 ar
  11       10       11 ar
  12       11       12 ar
  13       12       13 ar
  14       13       14 ar
  15       14        9 ar
  16        1       15 1
  17        1       16 1
  18        1       17 1
  19        7       18 1
  20        7       19 1
  21        7       20 1
  22       10       21 1
  23       11       22 1
  24       12       23 1
  25       13       24 1
  26       14       25 1

@<TRIPOS>MOLECULE

  25   26
SMALL
USER_CHARGES
@<TRIPOS>ATOM
   1 C1          -1.0129     3.5690     1.4141 C.3          1    LIG   0.0000
   2 S2          -1.3614     2.4390     0.0438 S.3          1    LIG   0.0000
   3 C3           0.0568     1.4301     0.0135 C.2          1    LIG   0.0000
   4 N4           1.2999     1.8390     0.0098 N.2          1    LIG   0.0000
   5 N5           2.1094     0.7975    -0.0173 N.2          1    LIG   0.0000
   6 C6           1.4026    -0.3067    -0.0285 C.2          1    LIG   0.0000
   7 C7           1.9405    -1.7264    -0.0615 C.3          1    LIG   0.0000
   8 N8           0.0946     0.0700    -0.0089 N.pl3        1    LIG   0.0000
   9 C9          -1.0118    -0.7882    -0.0119 C.ar         1    LIG   0.0000
  10 C10         -2.1152    -0.4916     0.7814 C.ar         1    LIG   0.0000
  11 C11         -3.2095    -1.3501     0.7728 C.ar         1    LIG   0.0000
  12 C12         -3.1931    -2.4911    -0.0237 C.ar         1    LIG   0.0000
  13 C13         -2.0855    -2.7798    -0.8142 C.ar         1    LIG   0.0000
  14 C14         -0.9864    -1.9267    -0.8109 C.ar         1    LIG   0.0000
  15 H           -1.7764     4.2054     1.5238 H            1    LIG   0.0000
  16 H           -0.8929     3.0440     2.2568 H            1    LIG   0.0000
  17 H           -0.1769     4.0817     1.2189 H            1    LIG   0.0000
  18 H            1.1770    -2.3722    -0.0635 H            1    LIG   0.0000
  19 H            2.4888    -1.8560    -0.8877 H            1    LIG   0.0000
  20 H            2.5099    -1.8860     0.7449 H            1    LIG   0.0000
  21 H           -2.1216     0.3299     1.3517 H            1    LIG   0.0000
  22 H           -4.0083    -1.1473     1.3391 H            1    LIG   0.0000
  23 H           -3.9814    -3.1064    -0.0279 H            1    LIG   0.0000
  24 H           -2.0791    -3.6008    -1.3850 H            1    LIG   0.0000
  25 H           -0.1872    -2.1296    -1.3766 H            1    LIG   0.0000
@<TRIPOS>BOND
   1        1        2 1
   2        2        3 1
   3        3        4 2
   4        4        5 1
   5        5        6 2
   6        6        7 1
   7        6        8 1
   8        8        3 1
   9        8        9 1
  10        9       10 ar
  11       10       11 ar
  12       11       12 ar
  13       12       13 ar
  14       13       14 ar
  15       14        9 ar
  16        1       15 1
  17        1       16 1
  18        1       17 1
  19        7       18 1
  20        7       19 1
  21        7       20 1
  22       10       21 1
  23       11       22 1
  24       12       23 1
  25       13       24 1
  26       14       25 1

@<TRIPOS>MOLECULE

  25   26
SMALL
USER_CHARGES
@<TRIPOS>ATOM
   1 C1          -1.0129     3.5690     1.4141 C.3          1    LIG   0.0000
   2 S2          -1.3614     2.4390     0.0438 S.3          1    LIG   0.0000
   3 C3           0.0568     1.4301     0.0135 C.2          1    LIG   0.0000
   4 N4           1.2999     1.8390     0.0098 N.2          1    LIG   0.0000
   5 N5           2.1094     0.7975    -0.0173 N.2          1    LIG   0.0000
   6 C6           1.4026    -0.3067    -0.0285 C.2          1    LIG   0.0000
   7 C7           1.9405    -1.7264    -0.0615 C.3          1    LIG   0.0000
   8 N8           0.0946     0.0700    -0.0089 N.pl3        1    LIG   0.0000
   9 C9          -1.0118    -0.7882    -0.0119 C.ar         1    LIG   0.0000
  10 C10         -0.9802    -1.9546     0.7455 C.ar         1    LIG   0.0000
  11 C11         -2.0834    -2.8016     0.7360 C.ar         1    LIG   0.0000
  12 C12         -3.2027    -2.4786    -0.0252 C.ar         1    LIG   0.0000
  13 C13         -3.2257    -1.3100    -0.7794 C.ar         1    LIG   0.0000
  14 C14         -2.1261    -0.4576    -0.7760 C.ar         1    LIG   0.0000
  15 H           -1.7764     4.2054     1.5238 H            1    LIG   0.0000
  16 H           -0.8929     3.0440     2.2568 H            1    LIG   0.0000
  17 H           -0.1769     4.0817     1.2189 H            1    LIG   0.0000
  18 H            1.1770    -2.3722    -0.0635 H            1    LIG   0.0000
  19 H            2.4888    -1.8560    -0.8877 H            1    LIG   0.0000
  20 H            2.5099    -1.8860     0.7449 H            1    LIG   0.0000
  21 H           -0.1733    -2.1815     1.2908 H            1    LIG   0.0000
  22 H           -2.0722    -3.6430     1.2763 H            1    LIG   0.0000
  23 H           -3.9944    -3.0896    -0.0300 H            1    LIG   0.0000
  24 H           -4.0328    -1.0826    -1.3243 H            1    LIG   0.0000
  25 H           -2.1368     0.3835    -1.3169 H            1    LIG   0.0000
@<TRIPOS>BOND
   1        1        2 1
   2        2        3 1
   3        3        4 2
   4        4        5 1
   5        5        6 2
   6        6        7 1
   7        6        8 1
   8        8        3 1
   9        8        9 1
  10        9       10 ar
  11       10       11 ar
  12       11       12 ar
  13       12       13 ar
  14       13       14 ar
  15       14        9 ar
  16        1       15 1
  17        1       16 1
  18        1       17 1
  19        7       18 1
  20        7       19 1
  21        7       20 1
  22       10       21 1
  23       11       22 1
  24       12       23 1
  25       13       24 1
  26       14       25 1

@<TRIPOS>MOLECULE

  25   26
SMALL
USER_CHARGES
@<TRIPOS>ATOM
   1 C1          -2.3295     1.7189     1.3930 C.3          1    LIG   0.0000
   2 S2          -1.3614     2.4390     0.0438 S.3          1    LIG   0.0000
   3 C3           0.0568     1.4301     0.0135 C.2          1    LIG   0.0000
   4 N4           1.2999     1.8390     0.0098 N.2          1    LIG   0.0000
   5 N5           2.1094     0.7975    -0.0173 N.2          1    LIG   0.0000
   6 C6           1.4026    -0.3067    -0.0285 C.2          1    LIG   0.0000
   7 C7           1.9405    -1.7264    -0.0615 C.3          1    LIG   0.0000
   8 N8           0.0946     0.0700    -0.0089 N.pl3        1    LIG   0.0000
   9 C9          -1.0118    -0.7882    -0.0119 C.ar         1    LIG   0.0000
  10 C10         -0.9802    -1.9546     0.7455 C.ar         1    LIG   0.0000
  11 C11         -2.0834    -2.8016     0.7360 C.ar         1    LIG   0.0000
  12 C12         -3.2027    -2.4786    -0.0252 C.ar         1    LIG   0.0000
  13 C13         -3.2257    -1.3100    -0.7794 C.ar         1    LIG   0.0000
  14 C14         -2.1261    -0.4576    -0.7760 C.ar         1    LIG   0.0000
  15 H           -3.1822     2.2300     1.5012 H            1    LIG   0.0000
  16 H           -2.5379     0.7641     1.1811 H            1    LIG   0.0000
  17 H           -1.8034     1.7647     2.2422 H            1    LIG   0.0000
  18 H            1.1770    -2.3722    -0.0635 H            1    LIG   0.0000
  19 H            2.4888    -1.8560    -0.8877 H            1    LIG   0.0000
  20 H            2.5099    -1.8860     0.7449 H            1    LIG   0.0000
  21 H           -0.1733    -2.1815     1.2908 H            1    LIG   0.0000
  22 H           -2.0722    -3.6430     1.2763 H            1    LIG   0.0000
  23 H           -3.9944    -3.0896    -0.0300 H            1    LIG   0.0000
  24 H           -4.0328    -1.0826    -1.3243 H            1    LIG   0.0000
  25 H           -2.1368     0.3835    -1.3169 H            1    LIG   0.0000
@<TRIPOS>BOND
   1        1        2 1
   2        2        3 1
   3        3        4 2
   4        4        5 1
   5        5        6 2
   6        6        7 1
   7        6        8 1
   8        8        3 1
   9        8        9 1
  10        9       10 ar
  11       10       11 ar
  12       11       12 ar
  13       12       13 ar
  14       13       14 ar
  15       14        9 ar
  16        1       15 1
  17        1       16 1
  18        1       17 1
  19        7       18 1
  20        7       19 1
  21        7       20 1
  22       10       21 1
  23       11       22 1
  24       12       23 1
  25       13       24 1
  26       14       25 1

