@<TRIPOS>MOLECULE
*****
 25 26 0 0 0
SMALL
USER_CHARGES

@<TRIPOS>ATOM
      1 C1         -1.6986    2.6990   -1.7154 C.3     1  LIG1        0.0000
      2 S2         -1.3614    2.4390    0.0438 S.3     1  LIG1        0.0000
      3 C3          0.0568    1.4301    0.0135 C.2     1  LIG1        0.0000
      4 N4          1.2999    1.8390    0.0098 N.2     1  LIG1        0.0000
      5 N5          2.1094    0.7975   -0.0173 N.2     1  LIG1        0.0000
      6 C6          1.4026   -0.3067   -0.0285 C.2     1  LIG1        0.0000
      7 C7          1.9405   -1.7264   -0.0615 C.3     1  LIG1        0.0000
      8 N8          0.0946    0.0700   -0.0089 N.pl3   1  LIG1        0.0000
      9 C9         -1.0118   -0.7882   -0.0119 C.ar    1  LIG1        0.0000
     10 C10        -1.5433   -1.2303    1.1952 C.ar    1  LIG1        0.0000
     11 C11        -2.6419   -2.0832    1.1827 C.ar    1  LIG1        0.0000
     12 C12        -3.1977   -2.4851   -0.0281 C.ar    1  LIG1        0.0000
     13 C13        -2.6598   -2.0379   -1.2305 C.ar    1  LIG1        0.0000
     14 C14        -1.5605   -1.1851   -1.2270 C.ar    1  LIG1        0.0000
     15 H          -2.5086    3.2766   -1.8177 H       1  LIG1        0.0000
     16 H          -0.9134    3.1473   -2.1426 H       1  LIG1        0.0000
     17 H          -1.8602    1.8169   -2.1578 H       1  LIG1        0.0000
     18 H           1.1770   -2.3722   -0.0635 H       1  LIG1        0.0000
     19 H           2.4888   -1.8560   -0.8877 H       1  LIG1        0.0000
     20 H           2.5099   -1.8860    0.7449 H       1  LIG1        0.0000
     21 H          -1.1400   -0.9380    2.0623 H       1  LIG1        0.0000
     22 H          -3.0326   -2.4077    2.0441 H       1  LIG1        0.0000
     23 H          -3.9876   -3.0984   -0.0339 H       1  LIG1        0.0000
     24 H          -3.0634   -2.3295   -2.0977 H       1  LIG1        0.0000
     25 H          -1.1693   -0.8611   -2.0883 H       1  LIG1        0.0000
@<TRIPOS>BOND
     1     1     2    1
     2     2     3    1
     3     3     4    2
     4     4     5    1
     5     5     6    2
     6     6     7    1
     7     6     8    1
     8     8     3    1
     9     8     9    1
    10     9    10   ar
    11    10    11   ar
    12    11    12   ar
    13    12    13   ar
    14    13    14   ar
    15    14     9   ar
    16     1    15    1
    17     1    16    1
    18     1    17    1
    19     7    18    1
    20     7    19    1
    21     7    20    1
    22    10    21    1
    23    11    22    1
    24    12    23    1
    25    13    24    1
    26    14    25    1
