@<TRIPOS>MOLECULE
*****
 25 26 0 0 0
SMALL
USER_CHARGES

@<TRIPOS>ATOM
      1 C1         -1.6676    2.6366    1.8168 C.3     1  LIG1        0.0000
      2 S2         -1.3614    2.4390    0.0438 S.3     1  LIG1        0.0000
      3 C3          0.0568    1.4301    0.0135 C.2     1  LIG1        0.0000
      4 N4          1.2999    1.8390    0.0098 N.2     1  LIG1        0.0000
      5 N5          2.1094    0.7975   -0.0173 N.2     1  LIG1        0.0000
      6 C6          1.4026   -0.3067   -0.0285 C.2     1  LIG1        0.0000
      7 C7          1.9405   -1.7264   -0.0615 C.3     1  LIG1        0.0000
      8 N8          0.0946    0.0700   -0.0089 N.pl3   1  LIG1        0.0000
      9 C9         -1.0118   -0.7882   -0.0119 C.ar    1  LIG1        0.0000
     10 C10        -1.1746   -1.7050    1.0215 C.ar    1  LIG1        0.0000
     11 C11        -2.2761   -2.5541    1.0100 C.ar    1  LIG1        0.0000
     12 C12        -3.2009   -2.4810   -0.0272 C.ar    1  LIG1        0.0000
     13 C13        -3.0303   -1.5609   -1.0565 C.ar    1  LIG1        0.0000
     14 C14        -1.9309   -0.7083   -1.0530 C.ar    1  LIG1        0.0000
     15 H          -2.4754    3.2099    1.9537 H       1  LIG1        0.0000
     16 H          -1.8216    1.7393    2.2305 H       1  LIG1        0.0000
     17 H          -0.8748    3.0698    2.2457 H       1  LIG1        0.0000
     18 H           1.1770   -2.3722   -0.0635 H       1  LIG1        0.0000
     19 H           2.4888   -1.8560   -0.8877 H       1  LIG1        0.0000
     20 H           2.5099   -1.8860    0.7449 H       1  LIG1        0.0000
     21 H          -0.5070   -1.7530    1.7645 H       1  LIG1        0.0000
     22 H          -2.4036   -3.2174    1.7474 H       1  LIG1        0.0000
     23 H          -3.9919   -3.0928   -0.0327 H       1  LIG1        0.0000
     24 H          -3.6982   -1.5123   -1.7992 H       1  LIG1        0.0000
     25 H          -1.8028   -0.0454   -1.7907 H       1  LIG1        0.0000
@<TRIPOS>BOND
     1     1     2    1
     2     2     3    1
     3     3     4    2
     4     4     5    1
     5     5     6    2
     6     6     7    1
     7     6     8    1
     8     8     3    1
     9     8     9    1
    10     9    10   ar
    11    10    11   ar
    12    11    12   ar
    13    12    13   ar
    14    13    14   ar
    15    14     9   ar
    16     1    15    1
    17     1    16    1
    18     1    17    1
    19     7    18    1
    20     7    19    1
    21     7    20    1
    22    10    21    1
    23    11    22    1
    24    12    23    1
    25    13    24    1
    26    14    25    1
