@<TRIPOS>MOLECULE

  32   33
SMALL
USER_CHARGES
@<TRIPOS>ATOM
   1 C1           1.8776     0.1224     0.1224 C.3          1    LIG   0.0000
   2 C2           1.0000     1.0000     1.0000 C.3          1    LIG   0.0000
   3 C3           0.1224     1.8776     0.1224 C.3          1    LIG   0.0000
   4 O4           1.8198     1.8198     1.8198 O.3          1    LIG   0.0000
   5 C5           1.6627     1.6627     3.1109 C.2          1    LIG   0.0000
   6 O6           0.8666     0.8666     3.5259 O.2          1    LIG   0.0000
   7 C7           2.4509     2.4509     4.0384 C.ar         1    LIG   0.0000
   8 C8           3.3759     3.3761     3.5661 C.ar         1    LIG   0.0000
   9 C9           4.1200     4.1211     4.4741 C.ar         1    LIG   0.0000
  10 C10          3.9556     3.9551     5.8464 C.ar         1    LIG   0.0000
  11 C11          3.0281     3.0253     6.2966 C.ar         1    LIG   0.0000
  12 C12          2.2719     2.2719     5.4062 C.ar         1    LIG   0.0000
  13 C13          2.8280     2.8156     7.7901 C.3          1    LIG   0.0000
  14 C14          4.1291     3.0406     8.5431 C.3          1    LIG   0.0000
  15 C15          4.8153     4.3188     8.0854 C.2          1    LIG   0.0000
  16 C16          4.7018     4.7196     6.8317 C.2          1    LIG   0.0000
  17 H            1.3002    -0.4549    -0.4549 H            1    LIG   0.0000
  18 H            2.4549     0.6998    -0.4549 H            1    LIG   0.0000
  19 H            2.4549    -0.4549     0.6998 H            1    LIG   0.0000
  20 H            0.4226     0.4226     1.5774 H            1    LIG   0.0000
  21 H           -0.4549     1.3002    -0.4549 H            1    LIG   0.0000
  22 H           -0.4549     2.4549     0.6998 H            1    LIG   0.0000
  23 H            0.6998     2.4549    -0.4549 H            1    LIG   0.0000
  24 H            3.5044     3.5043     2.5827 H            1    LIG   0.0000
  25 H            4.7845     4.7873     4.1357 H            1    LIG   0.0000
  26 H            1.6058     1.6078     5.7456 H            1    LIG   0.0000
  27 H            2.5131     1.8802     7.9509 H            1    LIG   0.0000
  28 H            2.1402     3.4607     8.1229 H            1    LIG   0.0000
  29 H            3.9324     3.1081     9.5212 H            1    LIG   0.0000
  30 H            4.7394     2.2657     8.3785 H            1    LIG   0.0000
  31 H            5.3532     4.8565     8.7346 H            1    LIG   0.0000
  32 H            5.1418     5.5732     6.5528 H            1    LIG   0.0000
@<TRIPOS>BOND
   1        1        2 1
   2        2        3 1
   3        2        4 1
   4        4        5 1
   5        5        6 2
   6        5        7 1
   7        7        8 ar
   8        8        9 ar
   9        9       10 ar
  10       10       11 ar
  11       11       12 ar
  12       12        7 ar
  13       11       13 1
  14       13       14 1
  15       14       15 1
  16       15       16 2
  17       16       10 1
  18        1       17 1
  19        1       18 1
  20        1       19 1
  21        2       20 1
  22        3       21 1
  23        3       22 1
  24        3       23 1
  25        8       24 1
  26        9       25 1
  27       12       26 1
  28       13       27 1
  29       13       28 1
  30       14       29 1
  31       14       30 1
  32       15       31 1
  33       16       32 1

@<TRIPOS>MOLECULE

  32   33
SMALL
USER_CHARGES
@<TRIPOS>ATOM
   1 C1           1.8776     0.1224     0.1224 C.3          1    LIG   0.0000
   2 C2           1.0000     1.0000     1.0000 C.3          1    LIG   0.0000
   3 C3           0.1224     1.8776     0.1224 C.3          1    LIG   0.0000
   4 O4           1.8198     1.8198     1.8198 O.3          1    LIG   0.0000
   5 C5           1.6627     1.6627     3.1109 C.2          1    LIG   0.0000
   6 O6           0.8666     0.8666     3.5259 O.2          1    LIG   0.0000
   7 C7           2.4509     2.4509     4.0384 C.ar         1    LIG   0.0000
   8 C8           2.5321     3.8321     3.8956 C.ar         1    LIG   0.0000
   9 C9           3.2934     4.5674     4.7973 C.ar         1    LIG   0.0000
  10 C10          3.9760     3.9443     5.8383 C.ar         1    LIG   0.0000
  11 C11          3.8827     2.5646     5.9618 C.ar         1    LIG   0.0000
  12 C12          3.1252     1.8107     5.0730 C.ar         1    LIG   0.0000
  13 C13          4.6209     1.8522     7.0852 C.3          1    LIG   0.0000
  14 C14          5.9151     2.5753     7.4207 C.3          1    LIG   0.0000
  15 C15          5.6898     4.0742     7.5501 C.2          1    LIG   0.0000
  16 C16          4.7731     4.6729     6.8108 C.2          1    LIG   0.0000
  17 H            1.3002    -0.4549    -0.4549 H            1    LIG   0.0000
  18 H            2.4549     0.6998    -0.4549 H            1    LIG   0.0000
  19 H            2.4549    -0.4549     0.6998 H            1    LIG   0.0000
  20 H            0.4226     0.4226     1.5774 H            1    LIG   0.0000
  21 H           -0.4549     1.3002    -0.4549 H            1    LIG   0.0000
  22 H           -0.4549     2.4549     0.6998 H            1    LIG   0.0000
  23 H            0.6998     2.4549    -0.4549 H            1    LIG   0.0000
  24 H            2.0474     4.2919     3.1516 H            1    LIG   0.0000
  25 H            3.3516     5.5606     4.6963 H            1    LIG   0.0000
  26 H            3.0655     0.8179     5.1764 H            1    LIG   0.0000
  27 H            4.8318     0.9177     6.7985 H            1    LIG   0.0000
  28 H            4.0382     1.8281     7.8975 H            1    LIG   0.0000
  29 H            6.2707     2.2230     8.2864 H            1    LIG   0.0000
  30 H            6.5808     2.4071     6.6937 H            1    LIG   0.0000
  31 H            6.2366     4.6073     8.1958 H            1    LIG   0.0000
  32 H            4.6234     5.6552     6.9237 H            1    LIG   0.0000
@<TRIPOS>BOND
   1        1        2 1
   2        2        3 1
   3        2        4 1
   4        4        5 1
   5        5        6 2
   6        5        7 1
   7        7        8 ar
   8        8        9 ar
   9        9       10 ar
  10       10       11 ar
  11       11       12 ar
  12       12        7 ar
  13       11       13 1
  14       13       14 1
  15       14       15 1
  16       15       16 2
  17       16       10 1
  18        1       17 1
  19        1       18 1
  20        1       19 1
  21        2       20 1
  22        3       21 1
  23        3       22 1
  24        3       23 1
  25        8       24 1
  26        9       25 1
  27       12       26 1
  28       13       27 1
  29       13       28 1
  30       14       29 1
  31       14       30 1
  32       15       31 1
  33       16       32 1

@<TRIPOS>MOLECULE

  32   33
SMALL
USER_CHARGES
@<TRIPOS>ATOM
   1 C1           1.8776     0.1224     0.1224 C.3          1    LIG   0.0000
   2 C2           1.0000     1.0000     1.0000 C.3          1    LIG   0.0000
   3 C3           0.1224     1.8776     0.1224 C.3          1    LIG   0.0000
   4 O4           1.8198     1.8198     1.8198 O.3          1    LIG   0.0000
   5 C5           1.6627     1.6627     3.1109 C.2          1    LIG   0.0000
   6 O6           0.8666     0.8666     3.5259 O.2          1    LIG   0.0000
   7 C7           2.4509     2.4509     4.0384 C.ar         1    LIG   0.0000
   8 C8           3.8320     2.5324     3.8954 C.ar         1    LIG   0.0000
   9 C9           4.5672     3.2946     4.7964 C.ar         1    LIG   0.0000
  10 C10          3.9443     3.9754     5.8387 C.ar         1    LIG   0.0000
  11 C11          2.5651     3.8796     5.9642 C.ar         1    LIG   0.0000
  12 C12          1.8107     3.1252     5.0730 C.ar         1    LIG   0.0000
  13 C13          1.8541     4.6069     7.0955 C.3          1    LIG   0.0000
  14 C14          2.7417     4.6821     8.3271 C.3          1    LIG   0.0000
  15 C15          4.1501     5.1274     7.9636 C.2          1    LIG   0.0000
  16 C16          4.6702     4.7933     6.7960 C.2          1    LIG   0.0000
  17 H            1.3002    -0.4549    -0.4549 H            1    LIG   0.0000
  18 H            2.4549     0.6998    -0.4549 H            1    LIG   0.0000
  19 H            2.4549    -0.4549     0.6998 H            1    LIG   0.0000
  20 H            0.4226     0.4226     1.5774 H            1    LIG   0.0000
  21 H           -0.4549     1.3002    -0.4549 H            1    LIG   0.0000
  22 H           -0.4549     2.4549     0.6998 H            1    LIG   0.0000
  23 H            0.6998     2.4549    -0.4549 H            1    LIG   0.0000
  24 H            4.2920     2.0473     3.1517 H            1    LIG   0.0000
  25 H            5.5601     3.3547     4.6940 H            1    LIG   0.0000
  26 H            0.8176     3.0677     5.1747 H            1    LIG   0.0000
  27 H            1.0144     4.1149     7.3255 H            1    LIG   0.0000
  28 H            1.6263     5.5340     6.7978 H            1    LIG   0.0000
  29 H            2.3489     5.3370     8.9728 H            1    LIG   0.0000
  30 H            2.7850     3.7786     8.7537 H            1    LIG   0.0000
  31 H            4.6832     5.6739     8.6094 H            1    LIG   0.0000
  32 H            5.5893     5.1121     6.5644 H            1    LIG   0.0000
@<TRIPOS>BOND
   1        1        2 1
   2        2        3 1
   3        2        4 1
   4        4        5 1
   5        5        6 2
   6        5        7 1
   7        7        8 ar
   8        8        9 ar
   9        9       10 ar
  10       10       11 ar
  11       11       12 ar
  12       12        7 ar
  13       11       13 1
  14       13       14 1
  15       14       15 1
  16       15       16 2
  17       16       10 1
  18        1       17 1
  19        1       18 1
  20        1       19 1
  21        2       20 1
  22        3       21 1
  23        3       22 1
  24        3       23 1
  25        8       24 1
  26        9       25 1
  27       12       26 1
  28       13       27 1
  29       13       28 1
  30       14       29 1
  31       14       30 1
  32       15       31 1
  33       16       32 1

@<TRIPOS>MOLECULE

  32   33
SMALL
USER_CHARGES
@<TRIPOS>ATOM
   1 C1           1.8776     0.1224     0.1224 C.3          1    LIG   0.0000
   2 C2           1.0000     1.0000     1.0000 C.3          1    LIG   0.0000
   3 C3           0.1224     1.8776     0.1224 C.3          1    LIG   0.0000
   4 O4           1.8198     1.8198     1.8198 O.3          1    LIG   0.0000
   5 C5           1.6627     1.6627     3.1109 C.2          1    LIG   0.0000
   6 O6           0.8666     0.8666     3.5259 O.2          1    LIG   0.0000
   7 C7           2.4509     2.4509     4.0384 C.ar         1    LIG   0.0000
   8 C8           2.2908     2.2905     5.4107 C.ar         1    LIG   0.0000
   9 C9           3.0579     3.0568     6.2811 C.ar         1    LIG   0.0000
  10 C10          3.9813     3.9818     5.8019 C.ar         1    LIG   0.0000
  11 C11          4.1244     4.1272     4.4287 C.ar         1    LIG   0.0000
  12 C12          3.3694     3.3694     3.5409 C.ar         1    LIG   0.0000
  13 C13          5.1208     5.1332     3.8723 C.3          1    LIG   0.0000
  14 C14          5.2450     6.3335     4.7966 C.3          1    LIG   0.0000
  15 C15          5.4013     5.8978     6.2457 C.2          1    LIG   0.0000
  16 C16          4.8128     4.7950     6.6733 C.2          1    LIG   0.0000
  17 H            1.3002    -0.4549    -0.4549 H            1    LIG   0.0000
  18 H            2.4549     0.6998    -0.4549 H            1    LIG   0.0000
  19 H            2.4549    -0.4549     0.6998 H            1    LIG   0.0000
  20 H            0.4226     0.4226     1.5774 H            1    LIG   0.0000
  21 H           -0.4549     1.3002    -0.4549 H            1    LIG   0.0000
  22 H           -0.4549     2.4549     0.6998 H            1    LIG   0.0000
  23 H            0.6998     2.4549    -0.4549 H            1    LIG   0.0000
  24 H            1.6301     1.6302     5.7680 H            1    LIG   0.0000
  25 H            2.9444     2.9416     7.2679 H            1    LIG   0.0000
  26 H            3.4856     3.4836     2.5542 H            1    LIG   0.0000
  27 H            4.8088     5.4416     2.9737 H            1    LIG   0.0000
  28 H            6.0148     4.6943     3.7822 H            1    LIG   0.0000
  29 H            6.0455     6.8698     4.5290 H            1    LIG   0.0000
  30 H            4.4230     6.8967     4.7121 H            1    LIG   0.0000
  31 H            5.9503     6.4471     6.8756 H            1    LIG   0.0000
  32 H            4.9432     4.5118     7.6235 H            1    LIG   0.0000
@<TRIPOS>BOND
   1        1        2 1
   2        2        3 1
   3        2        4 1
   4        4        5 1
   5        5        6 2
   6        5        7 1
   7        7        8 ar
   8        8        9 ar
   9        9       10 ar
  10       10       11 ar
  11       11       12 ar
  12       12        7 ar
  13       11       13 1
  14       13       14 1
  15       14       15 1
  16       15       16 2
  17       16       10 1
  18        1       17 1
  19        1       18 1
  20        1       19 1
  21        2       20 1
  22        3       21 1
  23        3       22 1
  24        3       23 1
  25        8       24 1
  26        9       25 1
  27       12       26 1
  28       13       27 1
  29       13       28 1
  30       14       29 1
  31       14       30 1
  32       15       31 1
  33       16       32 1

@<TRIPOS>MOLECULE

  32   33
SMALL
USER_CHARGES
@<TRIPOS>ATOM
   1 C1           1.8776     0.1224     0.1224 C.3          1    LIG   0.0000
   2 C2           1.0000     1.0000     1.0000 C.3          1    LIG   0.0000
   3 C3           0.1224     1.8776     0.1224 C.3          1    LIG   0.0000
   4 O4           1.8198     1.8198     1.8198 O.3          1    LIG   0.0000
   5 C5           1.6627     1.6627     3.1109 C.2          1    LIG   0.0000
   6 O6           0.8666     0.8666     3.5259 O.2          1    LIG   0.0000
   7 C7           2.4509     2.4509     4.0384 C.ar         1    LIG   0.0000
   8 C8           3.1346     1.8345     5.0811 C.ar         1    LIG   0.0000
   9 C9           3.8845     2.6105     5.9579 C.ar         1    LIG   0.0000
  10 C10          3.9609     3.9926     5.8101 C.ar         1    LIG   0.0000
  11 C11          3.2698     4.5878     4.7635 C.ar         1    LIG   0.0000
  12 C12          2.5162     3.8306     3.8740 C.ar         1    LIG   0.0000
  13 C13          3.3279     6.0966     4.5772 C.3          1    LIG   0.0000
  14 C14          3.4590     6.7987     5.9189 C.3          1    LIG   0.0000
  15 C15          4.5267     6.1423     6.7810 C.2          1    LIG   0.0000
  16 C16          4.7416     4.8417     6.6942 C.2          1    LIG   0.0000
  17 H            1.3002    -0.4549    -0.4549 H            1    LIG   0.0000
  18 H            2.4549     0.6998    -0.4549 H            1    LIG   0.0000
  19 H            2.4549    -0.4549     0.6998 H            1    LIG   0.0000
  20 H            0.4226     0.4226     1.5774 H            1    LIG   0.0000
  21 H           -0.4549     1.3002    -0.4549 H            1    LIG   0.0000
  22 H           -0.4549     2.4549     0.6998 H            1    LIG   0.0000
  23 H            0.6998     2.4549    -0.4549 H            1    LIG   0.0000
  24 H            3.0872     0.8426     5.1991 H            1    LIG   0.0000
  25 H            4.3773     2.1683     6.7073 H            1    LIG   0.0000
  26 H            2.0259     4.2735     3.1234 H            1    LIG   0.0000
  27 H            2.4900     6.4042     4.1262 H            1    LIG   0.0000
  28 H            4.1169     6.3269     4.0076 H            1    LIG   0.0000
  29 H            3.7072     7.7549     5.7639 H            1    LIG   0.0000
  30 H            2.5817     6.7554     6.3969 H            1    LIG   0.0000
  31 H            5.0670     6.6963     7.4145 H            1    LIG   0.0000
  32 H            5.4617     4.4298     7.2526 H            1    LIG   0.0000
@<TRIPOS>BOND
   1        1        2 1
   2        2        3 1
   3        2        4 1
   4        4        5 1
   5        5        6 2
   6        5        7 1
   7        7        8 ar
   8        8        9 ar
   9        9       10 ar
  10       10       11 ar
  11       11       12 ar
  12       12        7 ar
  13       11       13 1
  14       13       14 1
  15       14       15 1
  16       15       16 2
  17       16       10 1
  18        1       17 1
  19        1       18 1
  20        1       19 1
  21        2       20 1
  22        3       21 1
  23        3       22 1
  24        3       23 1
  25        8       24 1
  26        9       25 1
  27       12       26 1
  28       13       27 1
  29       13       28 1
  30       14       29 1
  31       14       30 1
  32       15       31 1
  33       16       32 1

@<TRIPOS>MOLECULE

  32   33
SMALL
USER_CHARGES
@<TRIPOS>ATOM
   1 C1           1.8776     0.1224     0.1224 C.3          1    LIG   0.0000
   2 C2           1.0000     1.0000     1.0000 C.3          1    LIG   0.0000
   3 C3           0.1224     1.8776     0.1224 C.3          1    LIG   0.0000
   4 O4           1.8198     1.8198     1.8198 O.3          1    LIG   0.0000
   5 C5           1.6627     1.6627     3.1109 C.2          1    LIG   0.0000
   6 O6           0.8666     0.8666     3.5259 O.2          1    LIG   0.0000
   7 C7           2.4509     2.4509     4.0384 C.ar         1    LIG   0.0000
   8 C8           1.8346     3.1343     5.0813 C.ar         1    LIG   0.0000
   9 C9           2.6107     3.8833     5.9588 C.ar         1    LIG   0.0000
  10 C10          3.9925     3.9614     5.8096 C.ar         1    LIG   0.0000
  11 C11          4.5874     3.2729     4.7612 C.ar         1    LIG   0.0000
  12 C12          3.8306     2.5162     3.8740 C.ar         1    LIG   0.0000
  13 C13          6.0947     3.3419     4.5669 C.3          1    LIG   0.0000
  14 C14          6.6324     4.6920     5.0125 C.3          1    LIG   0.0000
  15 C15          6.0665     5.0892     6.3675 C.2          1    LIG   0.0000
  16 C16          4.8444     4.7214     6.7090 C.2          1    LIG   0.0000
  17 H            1.3002    -0.4549    -0.4549 H            1    LIG   0.0000
  18 H            2.4549     0.6998    -0.4549 H            1    LIG   0.0000
  19 H            2.4549    -0.4549     0.6998 H            1    LIG   0.0000
  20 H            0.4226     0.4226     1.5774 H            1    LIG   0.0000
  21 H           -0.4549     1.3002    -0.4549 H            1    LIG   0.0000
  22 H           -0.4549     2.4549     0.6998 H            1    LIG   0.0000
  23 H            0.6998     2.4549    -0.4549 H            1    LIG   0.0000
  24 H            0.8426     3.0873     5.1990 H            1    LIG   0.0000
  25 H            2.1687     4.3741     6.7096 H            1    LIG   0.0000
  26 H            4.2738     2.0236     3.1250 H            1    LIG   0.0000
  27 H            6.3075     3.2069     3.5991 H            1    LIG   0.0000
  28 H            6.5287     2.6210     5.1073 H            1    LIG   0.0000
  29 H            7.6290     4.6409     5.0775 H            1    LIG   0.0000
  30 H            6.3774     5.3838     4.3369 H            1    LIG   0.0000
  31 H            6.6204     5.6297     7.0008 H            1    LIG   0.0000
  32 H            4.4958     4.9729     7.6119 H            1    LIG   0.0000
@<TRIPOS>BOND
   1        1        2 1
   2        2        3 1
   3        2        4 1
   4        4        5 1
   5        5        6 2
   6        5        7 1
   7        7        8 ar
   8        8        9 ar
   9        9       10 ar
  10       10       11 ar
  11       11       12 ar
  12       12        7 ar
  13       11       13 1
  14       13       14 1
  15       14       15 1
  16       15       16 2
  17       16       10 1
  18        1       17 1
  19        1       18 1
  20        1       19 1
  21        2       20 1
  22        3       21 1
  23        3       22 1
  24        3       23 1
  25        8       24 1
  26        9       25 1
  27       12       26 1
  28       13       27 1
  29       13       28 1
  30       14       29 1
  31       14       30 1
  32       15       31 1
  33       16       32 1

@<TRIPOS>MOLECULE

  32   33
SMALL
USER_CHARGES
@<TRIPOS>ATOM
   1 C1           1.8776     0.1224     0.1224 C.3          1    LIG   0.0000
   2 C2           1.0000     1.0000     1.0000 C.3          1    LIG   0.0000
   3 C3           0.1224     1.8776     0.1224 C.3          1    LIG   0.0000
   4 O4           1.8198     1.8198     1.8198 O.3          1    LIG   0.0000
   5 C5           2.6282     1.1800     2.6282 C.2          1    LIG   0.0000
   6 O6           2.4098     0.0348     2.9124 O.2          1    LIG   0.0000
   7 C7           3.7865     1.8555     3.1792 C.ar         1    LIG   0.0000
   8 C8           4.6542     2.5453     2.3391 C.ar         1    LIG   0.0000
   9 C9           5.7711     3.1860     2.8666 C.ar         1    LIG   0.0000
  10 C10          6.0360     3.1433     4.2309 C.ar         1    LIG   0.0000
  11 C11          5.1597     2.4601     5.0692 C.ar         1    LIG   0.0000
  12 C12          4.0427     1.8170     4.5457 C.ar         1    LIG   0.0000
  13 C13          5.4304     2.4202     6.5654 C.3          1    LIG   0.0000
  14 C14          6.1293     3.6886     7.0301 C.3          1    LIG   0.0000
  15 C15          7.2708     4.0610     6.0963 C.2          1    LIG   0.0000
  16 C16          7.2039     3.7822     4.8071 C.2          1    LIG   0.0000
  17 H            1.3002    -0.4549    -0.4549 H            1    LIG   0.0000
  18 H            2.4549     0.6998    -0.4549 H            1    LIG   0.0000
  19 H            2.4549    -0.4549     0.6998 H            1    LIG   0.0000
  20 H            0.4226     0.4226     1.5774 H            1    LIG   0.0000
  21 H           -0.4549     1.3002    -0.4549 H            1    LIG   0.0000
  22 H           -0.4549     2.4549     0.6998 H            1    LIG   0.0000
  23 H            0.6998     2.4549    -0.4549 H            1    LIG   0.0000
  24 H            4.4753     2.5808     1.3558 H            1    LIG   0.0000
  25 H            6.3900     3.6826     2.2579 H            1    LIG   0.0000
  26 H            3.4211     1.3245     5.1548 H            1    LIG   0.0000
  27 H            6.0118     1.6330     6.7711 H            1    LIG   0.0000
  28 H            4.5616     2.3291     7.0521 H            1    LIG   0.0000
  29 H            5.4669     4.4374     7.0504 H            1    LIG   0.0000
  30 H            6.4946     3.5417     7.9494 H            1    LIG   0.0000
  31 H            8.0797     4.5213     6.4620 H            1    LIG   0.0000
  32 H            7.9751     4.0167     4.2153 H            1    LIG   0.0000
@<TRIPOS>BOND
   1        1        2 1
   2        2        3 1
   3        2        4 1
   4        4        5 1
   5        5        6 2
   6        5        7 1
   7        7        8 ar
   8        8        9 ar
   9        9       10 ar
  10       10       11 ar
  11       11       12 ar
  12       12        7 ar
  13       11       13 1
  14       13       14 1
  15       14       15 1
  16       15       16 2
  17       16       10 1
  18        1       17 1
  19        1       18 1
  20        1       19 1
  21        2       20 1
  22        3       21 1
  23        3       22 1
  24        3       23 1
  25        8       24 1
  26        9       25 1
  27       12       26 1
  28       13       27 1
  29       13       28 1
  30       14       29 1
  31       14       30 1
  32       15       31 1
  33       16       32 1

@<TRIPOS>MOLECULE

  32   33
SMALL
USER_CHARGES
@<TRIPOS>ATOM
   1 C1           1.8776     0.1224     0.1224 C.3          1    LIG   0.0000
   2 C2           1.0000     1.0000     1.0000 C.3          1    LIG   0.0000
   3 C3           0.1224     1.8776     0.1224 C.3          1    LIG   0.0000
   4 O4           1.8198     1.8198     1.8198 O.3          1    LIG   0.0000
   5 C5           2.6282     1.1800     2.6282 C.2          1    LIG   0.0000
   6 O6           2.4098     0.0348     2.9124 O.2          1    LIG   0.0000
   7 C7           3.7865     1.8555     3.1792 C.ar         1    LIG   0.0000
   8 C8           4.6422     1.1775     4.0410 C.ar         1    LIG   0.0000
   9 C9           5.7490     1.8284     4.5773 C.ar         1    LIG   0.0000
  10 C10          6.0117     3.1574     4.2646 C.ar         1    LIG   0.0000
  11 C11          5.1582     3.8292     3.3941 C.ar         1    LIG   0.0000
  12 C12          4.0498     3.1826     2.8569 C.ar         1    LIG   0.0000
  13 C13          5.4446     5.2785     3.0321 C.3          1    LIG   0.0000
  14 C14          6.9394     5.5591     3.0345 C.3          1    LIG   0.0000
  15 C15          7.6064     4.9750     4.2705 C.2          1    LIG   0.0000
  16 C16          7.1445     3.8691     4.8254 C.2          1    LIG   0.0000
  17 H            1.3002    -0.4549    -0.4549 H            1    LIG   0.0000
  18 H            2.4549     0.6998    -0.4549 H            1    LIG   0.0000
  19 H            2.4549    -0.4549     0.6998 H            1    LIG   0.0000
  20 H            0.4226     0.4226     1.5774 H            1    LIG   0.0000
  21 H           -0.4549     1.3002    -0.4549 H            1    LIG   0.0000
  22 H           -0.4549     2.4549     0.6998 H            1    LIG   0.0000
  23 H            0.6998     2.4549    -0.4549 H            1    LIG   0.0000
  24 H            4.4620     0.2221     4.2751 H            1    LIG   0.0000
  25 H            6.3621     1.3349     5.1943 H            1    LIG   0.0000
  26 H            3.4394     3.6744     2.2360 H            1    LIG   0.0000
  27 H            4.9992     5.8758     3.6991 H            1    LIG   0.0000
  28 H            5.0788     5.4657     2.1204 H            1    LIG   0.0000
  29 H            7.3493     5.1509     2.2189 H            1    LIG   0.0000
  30 H            7.0857     6.5483     3.0216 H            1    LIG   0.0000
  31 H            8.4024     5.4327     4.6667 H            1    LIG   0.0000
  32 H            7.5853     3.5147     5.6501 H            1    LIG   0.0000
@<TRIPOS>BOND
   1        1        2 1
   2        2        3 1
   3        2        4 1
   4        4        5 1
   5        5        6 2
   6        5        7 1
   7        7        8 ar
   8        8        9 ar
   9        9       10 ar
  10       10       11 ar
  11       11       12 ar
  12       12        7 ar
  13       11       13 1
  14       13       14 1
  15       14       15 1
  16       15       16 2
  17       16       10 1
  18        1       17 1
  19        1       18 1
  20        1       19 1
  21        2       20 1
  22        3       21 1
  23        3       22 1
  24        3       23 1
  25        8       24 1
  26        9       25 1
  27       12       26 1
  28       13       27 1
  29       13       28 1
  30       14       29 1
  31       14       30 1
  32       15       31 1
  33       16       32 1

@<TRIPOS>MOLECULE

  32   33
SMALL
USER_CHARGES
@<TRIPOS>ATOM
   1 C1           1.8776     0.1224     0.1224 C.3          1    LIG   0.0000
   2 C2           1.0000     1.0000     1.0000 C.3          1    LIG   0.0000
   3 C3           0.1224     1.8776     0.1224 C.3          1    LIG   0.0000
   4 O4           1.8198     1.8198     1.8198 O.3          1    LIG   0.0000
   5 C5           2.6282     1.1800     2.6282 C.2          1    LIG   0.0000
   6 O6           2.4098     0.0348     2.9124 O.2          1    LIG   0.0000
   7 C7           3.7865     1.8555     3.1792 C.ar         1    LIG   0.0000
   8 C8           4.0300     1.8137     4.5480 C.ar         1    LIG   0.0000
   9 C9           5.1367     2.4697     5.0784 C.ar         1    LIG   0.0000
  10 C10          6.0069     3.1743     4.2541 C.ar         1    LIG   0.0000
  11 C11          5.7648     3.2053     2.8837 C.ar         1    LIG   0.0000
  12 C12          4.6588     2.5522     2.3496 C.ar         1    LIG   0.0000
  13 C13          6.7189     3.9595     1.9702 C.3          1    LIG   0.0000
  14 C14          8.1391     3.9268     2.5136 C.3          1    LIG   0.0000
  15 C15          8.1651     4.2352     4.0029 C.2          1    LIG   0.0000
  16 C16          7.1560     3.8865     4.7801 C.2          1    LIG   0.0000
  17 H            1.3002    -0.4549    -0.4549 H            1    LIG   0.0000
  18 H            2.4549     0.6998    -0.4549 H            1    LIG   0.0000
  19 H            2.4549    -0.4549     0.6998 H            1    LIG   0.0000
  20 H            0.4226     0.4226     1.5774 H            1    LIG   0.0000
  21 H           -0.4549     1.3002    -0.4549 H            1    LIG   0.0000
  22 H           -0.4549     2.4549     0.6998 H            1    LIG   0.0000
  23 H            0.6998     2.4549    -0.4549 H            1    LIG   0.0000
  24 H            3.4096     1.3121     5.1510 H            1    LIG   0.0000
  25 H            5.3080     2.4339     6.0629 H            1    LIG   0.0000
  26 H            4.4901     2.5836     1.3645 H            1    LIG   0.0000
  27 H            6.4187     4.9107     1.8982 H            1    LIG   0.0000
  28 H            6.7062     3.5366     1.0641 H            1    LIG   0.0000
  29 H            8.5255     3.0171     2.3620 H            1    LIG   0.0000
  30 H            8.6893     4.6075     2.0298 H            1    LIG   0.0000
  31 H            8.9540     4.7066     4.3973 H            1    LIG   0.0000
  32 H            7.1846     4.1184     5.7524 H            1    LIG   0.0000
@<TRIPOS>BOND
   1        1        2 1
   2        2        3 1
   3        2        4 1
   4        4        5 1
   5        5        6 2
   6        5        7 1
   7        7        8 ar
   8        8        9 ar
   9        9       10 ar
  10       10       11 ar
  11       11       12 ar
  12       12        7 ar
  13       11       13 1
  14       13       14 1
  15       14       15 1
  16       15       16 2
  17       16       10 1
  18        1       17 1
  19        1       18 1
  20        1       19 1
  21        2       20 1
  22        3       21 1
  23        3       22 1
  24        3       23 1
  25        8       24 1
  26        9       25 1
  27       12       26 1
  28       13       27 1
  29       13       28 1
  30       14       29 1
  31       14       30 1
  32       15       31 1
  33       16       32 1

@<TRIPOS>MOLECULE

  32   33
SMALL
USER_CHARGES
@<TRIPOS>ATOM
   1 C1           1.8776     0.1224     0.1224 C.3          1    LIG   0.0000
   2 C2           1.0000     1.0000     1.0000 C.3          1    LIG   0.0000
   3 C3           0.1224     1.8776     0.1224 C.3          1    LIG   0.0000
   4 O4           1.8198     1.8198     1.8198 O.3          1    LIG   0.0000
   5 C5           2.6282     1.1800     2.6282 C.2          1    LIG   0.0000
   6 O6           2.4098     0.0348     2.9124 O.2          1    LIG   0.0000
   7 C7           3.7869     1.8557     3.1794 C.ar         1    LIG   0.0000
   8 C8           4.0290     3.1818     2.8376 C.ar         1    LIG   0.0000
   9 C9           5.1465     3.8266     3.3585 C.ar         1    LIG   0.0000
  10 C10          6.0208     3.1610     4.2105 C.ar         1    LIG   0.0000
  11 C11          5.7756     1.8375     4.5636 C.ar         1    LIG   0.0000
  12 C12          4.6584     1.1954     4.0397 C.ar         1    LIG   0.0000
  13 C13          6.7284     1.1215     5.5089 C.3          1    LIG   0.0000
  14 C14          7.3506     2.0920     6.5011 C.3          1    LIG   0.0000
  15 C15          7.8298     3.3581     5.8074 C.2          1    LIG   0.0000
  16 C16          7.2018     3.8178     4.7396 C.2          1    LIG   0.0000
  17 H            1.3002    -0.4549    -0.4549 H            1    LIG   0.0000
  18 H            2.4549     0.6998    -0.4549 H            1    LIG   0.0000
  19 H            2.4549    -0.4549     0.6998 H            1    LIG   0.0000
  20 H            0.4226     0.4226     1.5774 H            1    LIG   0.0000
  21 H           -0.4549     1.3002    -0.4549 H            1    LIG   0.0000
  22 H           -0.4549     2.4549     0.6998 H            1    LIG   0.0000
  23 H            0.6998     2.4549    -0.4549 H            1    LIG   0.0000
  24 H            3.4063     3.6670     2.2237 H            1    LIG   0.0000
  25 H            5.3231     4.7809     3.1170 H            1    LIG   0.0000
  26 H            4.4786     0.2429     4.2855 H            1    LIG   0.0000
  27 H            7.4555     0.6904     4.9745 H            1    LIG   0.0000
  28 H            6.2234     0.4199     6.0116 H            1    LIG   0.0000
  29 H            6.6681     2.3361     7.1900 H            1    LIG   0.0000
  30 H            8.1292     1.6492     6.9457 H            1    LIG   0.0000
  31 H            8.6269     3.8466     6.1625 H            1    LIG   0.0000
  32 H            7.5487     4.6382     4.2851 H            1    LIG   0.0000
@<TRIPOS>BOND
   1        1        2 1
   2        2        3 1
   3        2        4 1
   4        4        5 1
   5        5        6 2
   6        5        7 1
   7        7        8 ar
   8        8        9 ar
   9        9       10 ar
  10       10       11 ar
  11       11       12 ar
  12       12        7 ar
  13       11       13 1
  14       13       14 1
  15       14       15 1
  16       15       16 2
  17       16       10 1
  18        1       17 1
  19        1       18 1
  20        1       19 1
  21        2       20 1
  22        3       21 1
  23        3       22 1
  24        3       23 1
  25        8       24 1
  26        9       25 1
  27       12       26 1
  28       13       27 1
  29       13       28 1
  30       14       29 1
  31       14       30 1
  32       15       31 1
  33       16       32 1

@<TRIPOS>MOLECULE

  32   33
SMALL
USER_CHARGES
@<TRIPOS>ATOM
   1 C1           1.8776     0.1224     0.1224 C.3          1    LIG   0.0000
   2 C2           1.0000     1.0000     1.0000 C.3          1    LIG   0.0000
   3 C3           0.1224     1.8776     0.1224 C.3          1    LIG   0.0000
   4 O4           1.8198     1.8198     1.8198 O.3          1    LIG   0.0000
   5 C5           1.1800     2.6282     2.6282 C.2          1    LIG   0.0000
   6 O6          -0.0199     2.6395     2.6395 O.2          1    LIG   0.0000
   7 C7           1.9216     3.5090     3.5090 C.ar         1    LIG   0.0000
   8 C8           2.9396     2.9981     4.3072 C.ar         1    LIG   0.0000
   9 C9           3.6454     3.8418     5.1596 C.ar         1    LIG   0.0000
  10 C10          3.3430     5.1972     5.2278 C.ar         1    LIG   0.0000
  11 C11          2.3300     5.7059     4.4200 C.ar         1    LIG   0.0000
  12 C12          1.6210     4.8657     3.5676 C.ar         1    LIG   0.0000
  13 C13          2.0012     7.1900     4.4742 C.3          1    LIG   0.0000
  14 C14          3.2396     8.0148     4.7893 C.3          1    LIG   0.0000
  15 C15          4.0292     7.4045     5.9374 C.2          1    LIG   0.0000
  16 C16          4.0458     6.0970     6.1226 C.2          1    LIG   0.0000
  17 H            1.3002    -0.4549    -0.4549 H            1    LIG   0.0000
  18 H            2.4549     0.6998    -0.4549 H            1    LIG   0.0000
  19 H            2.4549    -0.4549     0.6998 H            1    LIG   0.0000
  20 H            0.4226     0.4226     1.5774 H            1    LIG   0.0000
  21 H           -0.4549     1.3002    -0.4549 H            1    LIG   0.0000
  22 H           -0.4549     2.4549     0.6998 H            1    LIG   0.0000
  23 H            0.6998     2.4549    -0.4549 H            1    LIG   0.0000
  24 H            3.1643     2.0245     4.2686 H            1    LIG   0.0000
  25 H            4.3780     3.4692     5.7292 H            1    LIG   0.0000
  26 H            0.8917     5.2390     2.9943 H            1    LIG   0.0000
  27 H            1.3151     7.3467     5.1847 H            1    LIG   0.0000
  28 H            1.6352     7.4759     3.5886 H            1    LIG   0.0000
  29 H            3.8216     8.0528     3.9771 H            1    LIG   0.0000
  30 H            2.9593     8.9408     5.0422 H            1    LIG   0.0000
  31 H            4.5406     7.9991     6.5579 H            1    LIG   0.0000
  32 H            4.5539     5.7191     6.8965 H            1    LIG   0.0000
@<TRIPOS>BOND
   1        1        2 1
   2        2        3 1
   3        2        4 1
   4        4        5 1
   5        5        6 2
   6        5        7 1
   7        7        8 ar
   8        8        9 ar
   9        9       10 ar
  10       10       11 ar
  11       11       12 ar
  12       12        7 ar
  13       11       13 1
  14       13       14 1
  15       14       15 1
  16       15       16 2
  17       16       10 1
  18        1       17 1
  19        1       18 1
  20        1       19 1
  21        2       20 1
  22        3       21 1
  23        3       22 1
  24        3       23 1
  25        8       24 1
  26        9       25 1
  27       12       26 1
  28       13       27 1
  29       13       28 1
  30       14       29 1
  31       14       30 1
  32       15       31 1
  33       16       32 1

@<TRIPOS>MOLECULE

  32   33
SMALL
USER_CHARGES
@<TRIPOS>ATOM
   1 C1           1.8776     0.1224     0.1224 C.3          1    LIG   0.0000
   2 C2           1.0000     1.0000     1.0000 C.3          1    LIG   0.0000
   3 C3           0.1224     1.8776     0.1224 C.3          1    LIG   0.0000
   4 O4           1.8198     1.8198     1.8198 O.3          1    LIG   0.0000
   5 C5           1.1800     2.6282     2.6282 C.2          1    LIG   0.0000
   6 O6          -0.0199     2.6395     2.6395 O.2          1    LIG   0.0000
   7 C7           1.9216     3.5090     3.5090 C.ar         1    LIG   0.0000
   8 C8           1.2422     4.3704     4.3640 C.ar         1    LIG   0.0000
   9 C9           1.9537     5.2225     5.2030 C.ar         1    LIG   0.0000
  10 C10          3.3441     5.2278     5.1963 C.ar         1    LIG   0.0000
  11 C11          4.0199     4.3572     4.3461 C.ar         1    LIG   0.0000
  12 C12          3.3124     3.5047     3.5047 C.ar         1    LIG   0.0000
  13 C13          5.5409     4.3426     4.3418 C.3          1    LIG   0.0000
  14 C14          6.0964     4.6831     5.7161 C.3          1    LIG   0.0000
  15 C15          5.3844     5.8870     6.3140 C.2          1    LIG   0.0000
  16 C16          4.1131     6.1201     6.0429 C.2          1    LIG   0.0000
  17 H            1.3002    -0.4549    -0.4549 H            1    LIG   0.0000
  18 H            2.4549     0.6998    -0.4549 H            1    LIG   0.0000
  19 H            2.4549    -0.4549     0.6998 H            1    LIG   0.0000
  20 H            0.4226     0.4226     1.5774 H            1    LIG   0.0000
  21 H           -0.4549     1.3002    -0.4549 H            1    LIG   0.0000
  22 H           -0.4549     2.4549     0.6998 H            1    LIG   0.0000
  23 H            0.6998     2.4549    -0.4549 H            1    LIG   0.0000
  24 H            0.2423     4.3773     4.3757 H            1    LIG   0.0000
  25 H            1.4597     5.8378     5.8174 H            1    LIG   0.0000
  26 H            3.8062     2.8859     2.8938 H            1    LIG   0.0000
  27 H            5.8720     5.0152     3.6800 H            1    LIG   0.0000
  28 H            5.8579     3.4315     4.0781 H            1    LIG   0.0000
  29 H            5.9729     3.8970     6.3218 H            1    LIG   0.0000
  30 H            7.0713     4.8892     5.6321 H            1    LIG   0.0000
  31 H            5.8838     6.5079     6.9183 H            1    LIG   0.0000
  32 H            3.6709     6.9294     6.4296 H            1    LIG   0.0000
@<TRIPOS>BOND
   1        1        2 1
   2        2        3 1
   3        2        4 1
   4        4        5 1
   5        5        6 2
   6        5        7 1
   7        7        8 ar
   8        8        9 ar
   9        9       10 ar
  10       10       11 ar
  11       11       12 ar
  12       12        7 ar
  13       11       13 1
  14       13       14 1
  15       14       15 1
  16       15       16 2
  17       16       10 1
  18        1       17 1
  19        1       18 1
  20        1       19 1
  21        2       20 1
  22        3       21 1
  23        3       22 1
  24        3       23 1
  25        8       24 1
  26        9       25 1
  27       12       26 1
  28       13       27 1
  29       13       28 1
  30       14       29 1
  31       14       30 1
  32       15       31 1
  33       16       32 1

@<TRIPOS>MOLECULE

  32   33
SMALL
USER_CHARGES
@<TRIPOS>ATOM
   1 C1           1.8776     0.1224     0.1224 C.3          1    LIG   0.0000
   2 C2           1.0000     1.0000     1.0000 C.3          1    LIG   0.0000
   3 C3           0.1224     1.8776     0.1224 C.3          1    LIG   0.0000
   4 O4           1.8198     1.8198     1.8198 O.3          1    LIG   0.0000
   5 C5           1.1800     2.6282     2.6282 C.2          1    LIG   0.0000
   6 O6          -0.0199     2.6395     2.6395 O.2          1    LIG   0.0000
   7 C7           1.9216     3.5090     3.5090 C.ar         1    LIG   0.0000
   8 C8           1.6089     3.5624     4.8632 C.ar         1    LIG   0.0000
   9 C9           2.3144     4.4146     5.7073 C.ar         1    LIG   0.0000
  10 C10          3.3324     5.2219     5.2121 C.ar         1    LIG   0.0000
  11 C11          3.6484     5.1580     3.8580 C.ar         1    LIG   0.0000
  12 C12          2.9446     4.3086     3.0105 C.ar         1    LIG   0.0000
  13 C13          4.7709     6.0247     3.3079 C.3          1    LIG   0.0000
  14 C14          5.8515     6.2514     4.3540 C.3          1    LIG   0.0000
  15 C15          5.2452     6.6181     5.7000 C.2          1    LIG   0.0000
  16 C16          4.0703     6.1363     6.0626 C.2          1    LIG   0.0000
  17 H            1.3002    -0.4549    -0.4549 H            1    LIG   0.0000
  18 H            2.4549     0.6998    -0.4549 H            1    LIG   0.0000
  19 H            2.4549    -0.4549     0.6998 H            1    LIG   0.0000
  20 H            0.4226     0.4226     1.5774 H            1    LIG   0.0000
  21 H           -0.4549     1.3002    -0.4549 H            1    LIG   0.0000
  22 H           -0.4549     2.4549     0.6998 H            1    LIG   0.0000
  23 H            0.6998     2.4549    -0.4549 H            1    LIG   0.0000
  24 H            0.8771     2.9882     5.2304 H            1    LIG   0.0000
  25 H            2.0869     4.4467     6.6805 H            1    LIG   0.0000
  26 H            3.1754     4.2726     2.0381 H            1    LIG   0.0000
  27 H            4.3948     6.9086     3.0302 H            1    LIG   0.0000
  28 H            5.1752     5.5702     2.5141 H            1    LIG   0.0000
  29 H            6.3883     5.4138     4.4553 H            1    LIG   0.0000
  30 H            6.4477     6.9949     4.0513 H            1    LIG   0.0000
  31 H            5.7412     7.2299     6.3163 H            1    LIG   0.0000
  32 H            3.6809     6.4078     6.9428 H            1    LIG   0.0000
@<TRIPOS>BOND
   1        1        2 1
   2        2        3 1
   3        2        4 1
   4        4        5 1
   5        5        6 2
   6        5        7 1
   7        7        8 ar
   8        8        9 ar
   9        9       10 ar
  10       10       11 ar
  11       11       12 ar
  12       12        7 ar
  13       11       13 1
  14       13       14 1
  15       14       15 1
  16       15       16 2
  17       16       10 1
  18        1       17 1
  19        1       18 1
  20        1       19 1
  21        2       20 1
  22        3       21 1
  23        3       22 1
  24        3       23 1
  25        8       24 1
  26        9       25 1
  27       12       26 1
  28       13       27 1
  29       13       28 1
  30       14       29 1
  31       14       30 1
  32       15       31 1
  33       16       32 1

@<TRIPOS>MOLECULE

  32   33
SMALL
USER_CHARGES
@<TRIPOS>ATOM
   1 C1           1.8776     0.1224     0.1224 C.3          1    LIG   0.0000
   2 C2           1.0000     1.0000     1.0000 C.3          1    LIG   0.0000
   3 C3           0.1224     1.8776     0.1224 C.3          1    LIG   0.0000
   4 O4           1.8198     1.8198     1.8198 O.3          1    LIG   0.0000
   5 C5           1.1800     2.6282     2.6282 C.2          1    LIG   0.0000
   6 O6          -0.0199     2.6395     2.6395 O.2          1    LIG   0.0000
   7 C7           1.9216     3.5090     3.5090 C.ar         1    LIG   0.0000
   8 C8           1.6149     4.8648     3.5557 C.ar         1    LIG   0.0000
   9 C9           2.3326     5.7122     4.3944 C.ar         1    LIG   0.0000
  10 C10          3.3617     5.2200     5.1893 C.ar         1    LIG   0.0000
  11 C11          3.6587     3.8608     5.1466 C.ar         1    LIG   0.0000
  12 C12          2.9446     3.0105     4.3086 C.ar         1    LIG   0.0000
  13 C13          4.7717     3.3081     6.0239 C.3          1    LIG   0.0000
  14 C14          4.8898     4.0947     7.3202 C.3          1    LIG   0.0000
  15 C15          4.8477     5.5929     7.0600 C.2          1    LIG   0.0000
  16 C16          4.1422     6.0820     6.0565 C.2          1    LIG   0.0000
  17 H            1.3002    -0.4549    -0.4549 H            1    LIG   0.0000
  18 H            2.4549     0.6998    -0.4549 H            1    LIG   0.0000
  19 H            2.4549    -0.4549     0.6998 H            1    LIG   0.0000
  20 H            0.4226     0.4226     1.5774 H            1    LIG   0.0000
  21 H           -0.4549     1.3002    -0.4549 H            1    LIG   0.0000
  22 H           -0.4549     2.4549     0.6998 H            1    LIG   0.0000
  23 H            0.6998     2.4549    -0.4549 H            1    LIG   0.0000
  24 H            0.8785     5.2308     2.9866 H            1    LIG   0.0000
  25 H            2.1059     6.6856     4.4256 H            1    LIG   0.0000
  26 H            3.1679     2.0361     4.2809 H            1    LIG   0.0000
  27 H            5.6377     3.3652     5.5272 H            1    LIG   0.0000
  28 H            4.5734     2.3519     6.2392 H            1    LIG   0.0000
  29 H            4.1311     3.8468     7.9226 H            1    LIG   0.0000
  30 H            5.7562     3.8649     7.7635 H            1    LIG   0.0000
  31 H            5.3592     6.2133     7.6545 H            1    LIG   0.0000
  32 H            4.1461     7.0682     5.8907 H            1    LIG   0.0000
@<TRIPOS>BOND
   1        1        2 1
   2        2        3 1
   3        2        4 1
   4        4        5 1
   5        5        6 2
   6        5        7 1
   7        7        8 ar
   8        8        9 ar
   9        9       10 ar
  10       10       11 ar
  11       11       12 ar
  12       12        7 ar
  13       11       13 1
  14       13       14 1
  15       14       15 1
  16       15       16 2
  17       16       10 1
  18        1       17 1
  19        1       18 1
  20        1       19 1
  21        2       20 1
  22        3       21 1
  23        3       22 1
  24        3       23 1
  25        8       24 1
  26        9       25 1
  27       12       26 1
  28       13       27 1
  29       13       28 1
  30       14       29 1
  31       14       30 1
  32       15       31 1
  33       16       32 1

