@<TRIPOS>MOLECULE
*****
 32 33 0 0 0
SMALL
USER_CHARGES

@<TRIPOS>ATOM
      1 C1          1.8776    0.1224    0.1224 C.3     1  LIG1        0.0000
      2 C2          1.0000    1.0000    1.0000 C.3     1  LIG1        0.0000
      3 C3          0.1224    1.8776    0.1224 C.3     1  LIG1        0.0000
      4 O4          1.8198    1.8198    1.8198 O.3     1  LIG1        0.0000
      5 C5          1.1800    2.6282    2.6282 C.2     1  LIG1        0.0000
      6 O6         -0.0199    2.6395    2.6395 O.2     1  LIG1        0.0000
      7 C7          1.9216    3.5090    3.5090 C.3     1  LIG1        0.0000
      8 C8          1.2422    4.3704    4.3640 C.3     1  LIG1        0.0000
      9 C9          1.9537    5.2225    5.2030 C.3     1  LIG1        0.0000
     10 C10         3.3441    5.2278    5.1963 C.3     1  LIG1        0.0000
     11 C11         4.0199    4.3572    4.3461 C.3     1  LIG1        0.0000
     12 C12         3.3124    3.5047    3.5047 C.3     1  LIG1        0.0000
     13 C13         5.5409    4.3426    4.3418 C.3     1  LIG1        0.0000
     14 C14         6.0964    4.6831    5.7161 C.3     1  LIG1        0.0000
     15 C15         5.3844    5.8870    6.3140 C.2     1  LIG1        0.0000
     16 C16         4.1131    6.1201    6.0429 C.2     1  LIG1        0.0000
     17 H           1.3002   -0.4549   -0.4549 H       1  LIG1        0.0000
     18 H           2.4549    0.6998   -0.4549 H       1  LIG1        0.0000
     19 H           2.4549   -0.4549    0.6998 H       1  LIG1        0.0000
     20 H           0.4226    0.4226    1.5774 H       1  LIG1        0.0000
     21 H          -0.4549    1.3002   -0.4549 H       1  LIG1        0.0000
     22 H          -0.4549    2.4549    0.6998 H       1  LIG1        0.0000
     23 H           0.6998    2.4549   -0.4549 H       1  LIG1        0.0000
     24 H           0.2423    4.3773    4.3757 H       1  LIG1        0.0000
     25 H           1.4597    5.8378    5.8174 H       1  LIG1        0.0000
     26 H           3.8062    2.8859    2.8938 H       1  LIG1        0.0000
     27 H           5.8720    5.0152    3.6800 H       1  LIG1        0.0000
     28 H           5.8579    3.4315    4.0781 H       1  LIG1        0.0000
     29 H           5.9729    3.8970    6.3218 H       1  LIG1        0.0000
     30 H           7.0713    4.8892    5.6321 H       1  LIG1        0.0000
     31 H           5.8838    6.5079    6.9183 H       1  LIG1        0.0000
     32 H           3.6709    6.9294    6.4296 H       1  LIG1        0.0000
@<TRIPOS>BOND
     1     1     2    1
     2     2     3    1
     3     2     4    1
     4     4     5    1
     5     5     6    2
     6     5     7    1
     7     7     8   ar
     8     8     9   ar
     9     9    10   ar
    10    10    11   ar
    11    11    12   ar
    12    12     7   ar
    13    11    13    1
    14    13    14    1
    15    14    15    1
    16    15    16    2
    17    16    10    1
    18     1    17    1
    19     1    18    1
    20     1    19    1
    21     2    20    1
    22     3    21    1
    23     3    22    1
    24     3    23    1
    25     8    24    1
    26     9    25    1
    27    12    26    1
    28    13    27    1
    29    13    28    1
    30    14    29    1
    31    14    30    1
    32    15    31    1
    33    16    32    1
