@<TRIPOS>MOLECULE
*****
 32 33 0 0 0
SMALL
USER_CHARGES

@<TRIPOS>ATOM
      1 C1          1.8776    0.1224    0.1224 C.3     1  LIG1        0.0000
      2 C2          1.0000    1.0000    1.0000 C.3     1  LIG1        0.0000
      3 C3          0.1224    1.8776    0.1224 C.3     1  LIG1        0.0000
      4 O4          1.8198    1.8198    1.8198 O.3     1  LIG1        0.0000
      5 C5          1.6627    1.6627    3.1109 C.2     1  LIG1        0.0000
      6 O6          0.8666    0.8666    3.5259 O.2     1  LIG1        0.0000
      7 C7          2.4509    2.4509    4.0384 C.3     1  LIG1        0.0000
      8 C8          1.8346    3.1343    5.0813 C.3     1  LIG1        0.0000
      9 C9          2.6107    3.8833    5.9588 C.3     1  LIG1        0.0000
     10 C10         3.9925    3.9614    5.8096 C.3     1  LIG1        0.0000
     11 C11         4.5874    3.2729    4.7612 C.3     1  LIG1        0.0000
     12 C12         3.8306    2.5162    3.8740 C.3     1  LIG1        0.0000
     13 C13         6.0947    3.3419    4.5669 C.3     1  LIG1        0.0000
     14 C14         6.6324    4.6920    5.0125 C.3     1  LIG1        0.0000
     15 C15         6.0665    5.0892    6.3675 C.2     1  LIG1        0.0000
     16 C16         4.8444    4.7214    6.7090 C.2     1  LIG1        0.0000
     17 H           1.3002   -0.4549   -0.4549 H       1  LIG1        0.0000
     18 H           2.4549    0.6998   -0.4549 H       1  LIG1        0.0000
     19 H           2.4549   -0.4549    0.6998 H       1  LIG1        0.0000
     20 H           0.4226    0.4226    1.5774 H       1  LIG1        0.0000
     21 H          -0.4549    1.3002   -0.4549 H       1  LIG1        0.0000
     22 H          -0.4549    2.4549    0.6998 H       1  LIG1        0.0000
     23 H           0.6998    2.4549   -0.4549 H       1  LIG1        0.0000
     24 H           0.8426    3.0873    5.1990 H       1  LIG1        0.0000
     25 H           2.1687    4.3741    6.7096 H       1  LIG1        0.0000
     26 H           4.2738    2.0236    3.1250 H       1  LIG1        0.0000
     27 H           6.3075    3.2069    3.5991 H       1  LIG1        0.0000
     28 H           6.5287    2.6210    5.1073 H       1  LIG1        0.0000
     29 H           7.6290    4.6409    5.0775 H       1  LIG1        0.0000
     30 H           6.3774    5.3838    4.3369 H       1  LIG1        0.0000
     31 H           6.6204    5.6297    7.0008 H       1  LIG1        0.0000
     32 H           4.4958    4.9729    7.6119 H       1  LIG1        0.0000
@<TRIPOS>BOND
     1     1     2    1
     2     2     3    1
     3     2     4    1
     4     4     5    1
     5     5     6    2
     6     5     7    1
     7     7     8   ar
     8     8     9   ar
     9     9    10   ar
    10    10    11   ar
    11    11    12   ar
    12    12     7   ar
    13    11    13    1
    14    13    14    1
    15    14    15    1
    16    15    16    2
    17    16    10    1
    18     1    17    1
    19     1    18    1
    20     1    19    1
    21     2    20    1
    22     3    21    1
    23     3    22    1
    24     3    23    1
    25     8    24    1
    26     9    25    1
    27    12    26    1
    28    13    27    1
    29    13    28    1
    30    14    29    1
    31    14    30    1
    32    15    31    1
    33    16    32    1
