@<TRIPOS>MOLECULE
*****
 32 33 0 0 0
SMALL
USER_CHARGES

@<TRIPOS>ATOM
      1 C1          1.8776    0.1224    0.1224 C.3     1  LIG1        0.0000
      2 C2          1.0000    1.0000    1.0000 C.3     1  LIG1        0.0000
      3 C3          0.1224    1.8776    0.1224 C.3     1  LIG1        0.0000
      4 O4          1.8198    1.8198    1.8198 O.3     1  LIG1        0.0000
      5 C5          1.6627    1.6627    3.1109 C.2     1  LIG1        0.0000
      6 O6          0.8666    0.8666    3.5259 O.2     1  LIG1        0.0000
      7 C7          2.4509    2.4509    4.0384 C.3     1  LIG1        0.0000
      8 C8          3.8320    2.5324    3.8954 C.3     1  LIG1        0.0000
      9 C9          4.5672    3.2946    4.7964 C.3     1  LIG1        0.0000
     10 C10         3.9443    3.9754    5.8387 C.3     1  LIG1        0.0000
     11 C11         2.5651    3.8796    5.9642 C.3     1  LIG1        0.0000
     12 C12         1.8107    3.1252    5.0730 C.3     1  LIG1        0.0000
     13 C13         1.8541    4.6069    7.0955 C.3     1  LIG1        0.0000
     14 C14         2.7417    4.6821    8.3271 C.3     1  LIG1        0.0000
     15 C15         4.1501    5.1274    7.9636 C.2     1  LIG1        0.0000
     16 C16         4.6702    4.7933    6.7960 C.2     1  LIG1        0.0000
     17 H           1.3002   -0.4549   -0.4549 H       1  LIG1        0.0000
     18 H           2.4549    0.6998   -0.4549 H       1  LIG1        0.0000
     19 H           2.4549   -0.4549    0.6998 H       1  LIG1        0.0000
     20 H           0.4226    0.4226    1.5774 H       1  LIG1        0.0000
     21 H          -0.4549    1.3002   -0.4549 H       1  LIG1        0.0000
     22 H          -0.4549    2.4549    0.6998 H       1  LIG1        0.0000
     23 H           0.6998    2.4549   -0.4549 H       1  LIG1        0.0000
     24 H           4.2920    2.0473    3.1517 H       1  LIG1        0.0000
     25 H           5.5601    3.3547    4.6940 H       1  LIG1        0.0000
     26 H           0.8176    3.0677    5.1747 H       1  LIG1        0.0000
     27 H           1.0144    4.1149    7.3255 H       1  LIG1        0.0000
     28 H           1.6263    5.5340    6.7978 H       1  LIG1        0.0000
     29 H           2.3489    5.3370    8.9728 H       1  LIG1        0.0000
     30 H           2.7850    3.7786    8.7537 H       1  LIG1        0.0000
     31 H           4.6832    5.6739    8.6094 H       1  LIG1        0.0000
     32 H           5.5893    5.1121    6.5644 H       1  LIG1        0.0000
@<TRIPOS>BOND
     1     1     2    1
     2     2     3    1
     3     2     4    1
     4     4     5    1
     5     5     6    2
     6     5     7    1
     7     7     8   ar
     8     8     9   ar
     9     9    10   ar
    10    10    11   ar
    11    11    12   ar
    12    12     7   ar
    13    11    13    1
    14    13    14    1
    15    14    15    1
    16    15    16    2
    17    16    10    1
    18     1    17    1
    19     1    18    1
    20     1    19    1
    21     2    20    1
    22     3    21    1
    23     3    22    1
    24     3    23    1
    25     8    24    1
    26     9    25    1
    27    12    26    1
    28    13    27    1
    29    13    28    1
    30    14    29    1
    31    14    30    1
    32    15    31    1
    33    16    32    1
