@<TRIPOS>MOLECULE
*****
 32 33 0 0 0
SMALL
USER_CHARGES

@<TRIPOS>ATOM
      1 C1          1.8776    0.1224    0.1224 C.3     1  LIG1        0.0000
      2 C2          1.0000    1.0000    1.0000 C.3     1  LIG1        0.0000
      3 C3          0.1224    1.8776    0.1224 C.3     1  LIG1        0.0000
      4 O4          1.8198    1.8198    1.8198 O.3     1  LIG1        0.0000
      5 C5          1.6627    1.6627    3.1109 C.2     1  LIG1        0.0000
      6 O6          0.8666    0.8666    3.5259 O.2     1  LIG1        0.0000
      7 C7          2.4509    2.4509    4.0384 C.3     1  LIG1        0.0000
      8 C8          2.5321    3.8321    3.8956 C.3     1  LIG1        0.0000
      9 C9          3.2934    4.5674    4.7973 C.3     1  LIG1        0.0000
     10 C10         3.9760    3.9443    5.8383 C.3     1  LIG1        0.0000
     11 C11         3.8827    2.5646    5.9618 C.3     1  LIG1        0.0000
     12 C12         3.1252    1.8107    5.0730 C.3     1  LIG1        0.0000
     13 C13         4.6209    1.8522    7.0852 C.3     1  LIG1        0.0000
     14 C14         5.9151    2.5753    7.4207 C.3     1  LIG1        0.0000
     15 C15         5.6898    4.0742    7.5501 C.2     1  LIG1        0.0000
     16 C16         4.7731    4.6729    6.8108 C.2     1  LIG1        0.0000
     17 H           1.3002   -0.4549   -0.4549 H       1  LIG1        0.0000
     18 H           2.4549    0.6998   -0.4549 H       1  LIG1        0.0000
     19 H           2.4549   -0.4549    0.6998 H       1  LIG1        0.0000
     20 H           0.4226    0.4226    1.5774 H       1  LIG1        0.0000
     21 H          -0.4549    1.3002   -0.4549 H       1  LIG1        0.0000
     22 H          -0.4549    2.4549    0.6998 H       1  LIG1        0.0000
     23 H           0.6998    2.4549   -0.4549 H       1  LIG1        0.0000
     24 H           2.0474    4.2919    3.1516 H       1  LIG1        0.0000
     25 H           3.3516    5.5606    4.6963 H       1  LIG1        0.0000
     26 H           3.0655    0.8179    5.1764 H       1  LIG1        0.0000
     27 H           4.8318    0.9177    6.7985 H       1  LIG1        0.0000
     28 H           4.0382    1.8281    7.8975 H       1  LIG1        0.0000
     29 H           6.2707    2.2230    8.2864 H       1  LIG1        0.0000
     30 H           6.5808    2.4071    6.6937 H       1  LIG1        0.0000
     31 H           6.2366    4.6073    8.1958 H       1  LIG1        0.0000
     32 H           4.6234    5.6552    6.9237 H       1  LIG1        0.0000
@<TRIPOS>BOND
     1     1     2    1
     2     2     3    1
     3     2     4    1
     4     4     5    1
     5     5     6    2
     6     5     7    1
     7     7     8   ar
     8     8     9   ar
     9     9    10   ar
    10    10    11   ar
    11    11    12   ar
    12    12     7   ar
    13    11    13    1
    14    13    14    1
    15    14    15    1
    16    15    16    2
    17    16    10    1
    18     1    17    1
    19     1    18    1
    20     1    19    1
    21     2    20    1
    22     3    21    1
    23     3    22    1
    24     3    23    1
    25     8    24    1
    26     9    25    1
    27    12    26    1
    28    13    27    1
    29    13    28    1
    30    14    29    1
    31    14    30    1
    32    15    31    1
    33    16    32    1
