@<TRIPOS>MOLECULE
*****
 32 33 0 0 0
SMALL
USER_CHARGES

@<TRIPOS>ATOM
      1 C1          1.8776    0.1224    0.1224 C.3     1  LIG1        0.0000
      2 C2          1.0000    1.0000    1.0000 C.3     1  LIG1        0.0000
      3 C3          0.1224    1.8776    0.1224 C.3     1  LIG1        0.0000
      4 O4          1.8198    1.8198    1.8198 O.3     1  LIG1        0.0000
      5 C5          2.6282    1.1800    2.6282 C.2     1  LIG1        0.0000
      6 O6          2.4098    0.0348    2.9124 O.2     1  LIG1        0.0000
      7 C7          3.7865    1.8555    3.1792 C.3     1  LIG1        0.0000
      8 C8          4.6422    1.1775    4.0410 C.3     1  LIG1        0.0000
      9 C9          5.7490    1.8284    4.5773 C.3     1  LIG1        0.0000
     10 C10         6.0117    3.1574    4.2646 C.3     1  LIG1        0.0000
     11 C11         5.1582    3.8292    3.3941 C.3     1  LIG1        0.0000
     12 C12         4.0498    3.1826    2.8569 C.3     1  LIG1        0.0000
     13 C13         5.4446    5.2785    3.0321 C.3     1  LIG1        0.0000
     14 C14         6.9394    5.5591    3.0345 C.3     1  LIG1        0.0000
     15 C15         7.6064    4.9750    4.2705 C.2     1  LIG1        0.0000
     16 C16         7.1445    3.8691    4.8254 C.2     1  LIG1        0.0000
     17 H           1.3002   -0.4549   -0.4549 H       1  LIG1        0.0000
     18 H           2.4549    0.6998   -0.4549 H       1  LIG1        0.0000
     19 H           2.4549   -0.4549    0.6998 H       1  LIG1        0.0000
     20 H           0.4226    0.4226    1.5774 H       1  LIG1        0.0000
     21 H          -0.4549    1.3002   -0.4549 H       1  LIG1        0.0000
     22 H          -0.4549    2.4549    0.6998 H       1  LIG1        0.0000
     23 H           0.6998    2.4549   -0.4549 H       1  LIG1        0.0000
     24 H           4.4620    0.2221    4.2751 H       1  LIG1        0.0000
     25 H           6.3621    1.3349    5.1943 H       1  LIG1        0.0000
     26 H           3.4394    3.6744    2.2360 H       1  LIG1        0.0000
     27 H           4.9992    5.8758    3.6991 H       1  LIG1        0.0000
     28 H           5.0788    5.4657    2.1204 H       1  LIG1        0.0000
     29 H           7.3493    5.1509    2.2189 H       1  LIG1        0.0000
     30 H           7.0857    6.5483    3.0216 H       1  LIG1        0.0000
     31 H           8.4024    5.4327    4.6667 H       1  LIG1        0.0000
     32 H           7.5853    3.5147    5.6501 H       1  LIG1        0.0000
@<TRIPOS>BOND
     1     1     2    1
     2     2     3    1
     3     2     4    1
     4     4     5    1
     5     5     6    2
     6     5     7    1
     7     7     8   ar
     8     8     9   ar
     9     9    10   ar
    10    10    11   ar
    11    11    12   ar
    12    12     7   ar
    13    11    13    1
    14    13    14    1
    15    14    15    1
    16    15    16    2
    17    16    10    1
    18     1    17    1
    19     1    18    1
    20     1    19    1
    21     2    20    1
    22     3    21    1
    23     3    22    1
    24     3    23    1
    25     8    24    1
    26     9    25    1
    27    12    26    1
    28    13    27    1
    29    13    28    1
    30    14    29    1
    31    14    30    1
    32    15    31    1
    33    16    32    1
