@<TRIPOS>MOLECULE
*****
 32 33 0 0 0
SMALL
USER_CHARGES

@<TRIPOS>ATOM
      1 C1          1.8776    0.1224    0.1224 C.3     1  LIG1        0.0000
      2 C2          1.0000    1.0000    1.0000 C.3     1  LIG1        0.0000
      3 C3          0.1224    1.8776    0.1224 C.3     1  LIG1        0.0000
      4 O4          1.8198    1.8198    1.8198 O.3     1  LIG1        0.0000
      5 C5          1.1800    2.6282    2.6282 C.2     1  LIG1        0.0000
      6 O6         -0.0199    2.6395    2.6395 O.2     1  LIG1        0.0000
      7 C7          1.9216    3.5090    3.5090 C.3     1  LIG1        0.0000
      8 C8          1.6149    4.8648    3.5557 C.3     1  LIG1        0.0000
      9 C9          2.3326    5.7122    4.3944 C.3     1  LIG1        0.0000
     10 C10         3.3617    5.2200    5.1893 C.3     1  LIG1        0.0000
     11 C11         3.6587    3.8608    5.1466 C.3     1  LIG1        0.0000
     12 C12         2.9446    3.0105    4.3086 C.3     1  LIG1        0.0000
     13 C13         4.7717    3.3081    6.0239 C.3     1  LIG1        0.0000
     14 C14         4.8898    4.0947    7.3202 C.3     1  LIG1        0.0000
     15 C15         4.8477    5.5929    7.0600 C.2     1  LIG1        0.0000
     16 C16         4.1422    6.0820    6.0565 C.2     1  LIG1        0.0000
     17 H           1.3002   -0.4549   -0.4549 H       1  LIG1        0.0000
     18 H           2.4549    0.6998   -0.4549 H       1  LIG1        0.0000
     19 H           2.4549   -0.4549    0.6998 H       1  LIG1        0.0000
     20 H           0.4226    0.4226    1.5774 H       1  LIG1        0.0000
     21 H          -0.4549    1.3002   -0.4549 H       1  LIG1        0.0000
     22 H          -0.4549    2.4549    0.6998 H       1  LIG1        0.0000
     23 H           0.6998    2.4549   -0.4549 H       1  LIG1        0.0000
     24 H           0.8785    5.2308    2.9866 H       1  LIG1        0.0000
     25 H           2.1059    6.6856    4.4256 H       1  LIG1        0.0000
     26 H           3.1679    2.0361    4.2809 H       1  LIG1        0.0000
     27 H           5.6377    3.3652    5.5272 H       1  LIG1        0.0000
     28 H           4.5734    2.3519    6.2392 H       1  LIG1        0.0000
     29 H           4.1311    3.8468    7.9226 H       1  LIG1        0.0000
     30 H           5.7562    3.8649    7.7635 H       1  LIG1        0.0000
     31 H           5.3592    6.2133    7.6545 H       1  LIG1        0.0000
     32 H           4.1461    7.0682    5.8907 H       1  LIG1        0.0000
@<TRIPOS>BOND
     1     1     2    1
     2     2     3    1
     3     2     4    1
     4     4     5    1
     5     5     6    2
     6     5     7    1
     7     7     8   ar
     8     8     9   ar
     9     9    10   ar
    10    10    11   ar
    11    11    12   ar
    12    12     7   ar
    13    11    13    1
    14    13    14    1
    15    14    15    1
    16    15    16    2
    17    16    10    1
    18     1    17    1
    19     1    18    1
    20     1    19    1
    21     2    20    1
    22     3    21    1
    23     3    22    1
    24     3    23    1
    25     8    24    1
    26     9    25    1
    27    12    26    1
    28    13    27    1
    29    13    28    1
    30    14    29    1
    31    14    30    1
    32    15    31    1
    33    16    32    1
