@<TRIPOS>MOLECULE
*****
 32 33 0 0 0
SMALL
USER_CHARGES

@<TRIPOS>ATOM
      1 C1          1.8776    0.1224    0.1224 C.3     1  LIG1        0.0000
      2 C2          1.0000    1.0000    1.0000 C.3     1  LIG1        0.0000
      3 C3          0.1224    1.8776    0.1224 C.3     1  LIG1        0.0000
      4 O4          1.8198    1.8198    1.8198 O.3     1  LIG1        0.0000
      5 C5          1.6627    1.6627    3.1109 C.2     1  LIG1        0.0000
      6 O6          0.8666    0.8666    3.5259 O.2     1  LIG1        0.0000
      7 C7          2.4509    2.4509    4.0384 C.3     1  LIG1        0.0000
      8 C8          3.3759    3.3761    3.5661 C.3     1  LIG1        0.0000
      9 C9          4.1200    4.1211    4.4741 C.3     1  LIG1        0.0000
     10 C10         3.9556    3.9551    5.8464 C.3     1  LIG1        0.0000
     11 C11         3.0281    3.0253    6.2966 C.3     1  LIG1        0.0000
     12 C12         2.2719    2.2719    5.4062 C.3     1  LIG1        0.0000
     13 C13         2.8280    2.8156    7.7901 C.3     1  LIG1        0.0000
     14 C14         4.1291    3.0406    8.5431 C.3     1  LIG1        0.0000
     15 C15         4.8153    4.3188    8.0854 C.2     1  LIG1        0.0000
     16 C16         4.7018    4.7196    6.8317 C.2     1  LIG1        0.0000
     17 H           1.3002   -0.4549   -0.4549 H       1  LIG1        0.0000
     18 H           2.4549    0.6998   -0.4549 H       1  LIG1        0.0000
     19 H           2.4549   -0.4549    0.6998 H       1  LIG1        0.0000
     20 H           0.4226    0.4226    1.5774 H       1  LIG1        0.0000
     21 H          -0.4549    1.3002   -0.4549 H       1  LIG1        0.0000
     22 H          -0.4549    2.4549    0.6998 H       1  LIG1        0.0000
     23 H           0.6998    2.4549   -0.4549 H       1  LIG1        0.0000
     24 H           3.5044    3.5043    2.5827 H       1  LIG1        0.0000
     25 H           4.7845    4.7873    4.1357 H       1  LIG1        0.0000
     26 H           1.6058    1.6078    5.7456 H       1  LIG1        0.0000
     27 H           2.5131    1.8802    7.9509 H       1  LIG1        0.0000
     28 H           2.1402    3.4607    8.1229 H       1  LIG1        0.0000
     29 H           3.9324    3.1081    9.5212 H       1  LIG1        0.0000
     30 H           4.7394    2.2657    8.3785 H       1  LIG1        0.0000
     31 H           5.3532    4.8565    8.7346 H       1  LIG1        0.0000
     32 H           5.1418    5.5732    6.5528 H       1  LIG1        0.0000
@<TRIPOS>BOND
     1     1     2    1
     2     2     3    1
     3     2     4    1
     4     4     5    1
     5     5     6    2
     6     5     7    1
     7     7     8   ar
     8     8     9   ar
     9     9    10   ar
    10    10    11   ar
    11    11    12   ar
    12    12     7   ar
    13    11    13    1
    14    13    14    1
    15    14    15    1
    16    15    16    2
    17    16    10    1
    18     1    17    1
    19     1    18    1
    20     1    19    1
    21     2    20    1
    22     3    21    1
    23     3    22    1
    24     3    23    1
    25     8    24    1
    26     9    25    1
    27    12    26    1
    28    13    27    1
    29    13    28    1
    30    14    29    1
    31    14    30    1
    32    15    31    1
    33    16    32    1
