@<TRIPOS>MOLECULE
*****
 32 33 0 0 0
SMALL
USER_CHARGES

@<TRIPOS>ATOM
      1 C1          1.8776    0.1224    0.1224 C.3     1  LIG1        0.0000
      2 C2          1.0000    1.0000    1.0000 C.3     1  LIG1        0.0000
      3 C3          0.1224    1.8776    0.1224 C.3     1  LIG1        0.0000
      4 O4          1.8198    1.8198    1.8198 O.3     1  LIG1        0.0000
      5 C5          2.6282    1.1800    2.6282 C.2     1  LIG1        0.0000
      6 O6          2.4098    0.0348    2.9124 O.2     1  LIG1        0.0000
      7 C7          3.7865    1.8555    3.1792 C.3     1  LIG1        0.0000
      8 C8          4.6542    2.5453    2.3391 C.3     1  LIG1        0.0000
      9 C9          5.7711    3.1860    2.8666 C.3     1  LIG1        0.0000
     10 C10         6.0360    3.1433    4.2309 C.3     1  LIG1        0.0000
     11 C11         5.1597    2.4601    5.0692 C.3     1  LIG1        0.0000
     12 C12         4.0427    1.8170    4.5457 C.3     1  LIG1        0.0000
     13 C13         5.4304    2.4202    6.5654 C.3     1  LIG1        0.0000
     14 C14         6.1293    3.6886    7.0301 C.3     1  LIG1        0.0000
     15 C15         7.2708    4.0610    6.0963 C.2     1  LIG1        0.0000
     16 C16         7.2039    3.7822    4.8071 C.2     1  LIG1        0.0000
     17 H           1.3002   -0.4549   -0.4549 H       1  LIG1        0.0000
     18 H           2.4549    0.6998   -0.4549 H       1  LIG1        0.0000
     19 H           2.4549   -0.4549    0.6998 H       1  LIG1        0.0000
     20 H           0.4226    0.4226    1.5774 H       1  LIG1        0.0000
     21 H          -0.4549    1.3002   -0.4549 H       1  LIG1        0.0000
     22 H          -0.4549    2.4549    0.6998 H       1  LIG1        0.0000
     23 H           0.6998    2.4549   -0.4549 H       1  LIG1        0.0000
     24 H           4.4753    2.5808    1.3558 H       1  LIG1        0.0000
     25 H           6.3900    3.6826    2.2579 H       1  LIG1        0.0000
     26 H           3.4211    1.3245    5.1548 H       1  LIG1        0.0000
     27 H           6.0118    1.6330    6.7711 H       1  LIG1        0.0000
     28 H           4.5616    2.3291    7.0521 H       1  LIG1        0.0000
     29 H           5.4669    4.4374    7.0504 H       1  LIG1        0.0000
     30 H           6.4946    3.5417    7.9494 H       1  LIG1        0.0000
     31 H           8.0797    4.5213    6.4620 H       1  LIG1        0.0000
     32 H           7.9751    4.0167    4.2153 H       1  LIG1        0.0000
@<TRIPOS>BOND
     1     1     2    1
     2     2     3    1
     3     2     4    1
     4     4     5    1
     5     5     6    2
     6     5     7    1
     7     7     8   ar
     8     8     9   ar
     9     9    10   ar
    10    10    11   ar
    11    11    12   ar
    12    12     7   ar
    13    11    13    1
    14    13    14    1
    15    14    15    1
    16    15    16    2
    17    16    10    1
    18     1    17    1
    19     1    18    1
    20     1    19    1
    21     2    20    1
    22     3    21    1
    23     3    22    1
    24     3    23    1
    25     8    24    1
    26     9    25    1
    27    12    26    1
    28    13    27    1
    29    13    28    1
    30    14    29    1
    31    14    30    1
    32    15    31    1
    33    16    32    1
