@<TRIPOS>MOLECULE
*****
 32 33 0 0 0
SMALL
USER_CHARGES

@<TRIPOS>ATOM
      1 C1          1.8776    0.1224    0.1224 C.3     1  LIG1        0.0000
      2 C2          1.0000    1.0000    1.0000 C.3     1  LIG1        0.0000
      3 C3          0.1224    1.8776    0.1224 C.3     1  LIG1        0.0000
      4 O4          1.8198    1.8198    1.8198 O.3     1  LIG1        0.0000
      5 C5          1.1800    2.6282    2.6282 C.2     1  LIG1        0.0000
      6 O6         -0.0199    2.6395    2.6395 O.2     1  LIG1        0.0000
      7 C7          1.9216    3.5090    3.5090 C.3     1  LIG1        0.0000
      8 C8          2.9396    2.9981    4.3072 C.3     1  LIG1        0.0000
      9 C9          3.6454    3.8418    5.1596 C.3     1  LIG1        0.0000
     10 C10         3.3430    5.1972    5.2278 C.3     1  LIG1        0.0000
     11 C11         2.3300    5.7059    4.4200 C.3     1  LIG1        0.0000
     12 C12         1.6210    4.8657    3.5676 C.3     1  LIG1        0.0000
     13 C13         2.0012    7.1900    4.4742 C.3     1  LIG1        0.0000
     14 C14         3.2396    8.0148    4.7893 C.3     1  LIG1        0.0000
     15 C15         4.0292    7.4045    5.9374 C.2     1  LIG1        0.0000
     16 C16         4.0458    6.0970    6.1226 C.2     1  LIG1        0.0000
     17 H           1.3002   -0.4549   -0.4549 H       1  LIG1        0.0000
     18 H           2.4549    0.6998   -0.4549 H       1  LIG1        0.0000
     19 H           2.4549   -0.4549    0.6998 H       1  LIG1        0.0000
     20 H           0.4226    0.4226    1.5774 H       1  LIG1        0.0000
     21 H          -0.4549    1.3002   -0.4549 H       1  LIG1        0.0000
     22 H          -0.4549    2.4549    0.6998 H       1  LIG1        0.0000
     23 H           0.6998    2.4549   -0.4549 H       1  LIG1        0.0000
     24 H           3.1643    2.0245    4.2686 H       1  LIG1        0.0000
     25 H           4.3780    3.4692    5.7292 H       1  LIG1        0.0000
     26 H           0.8917    5.2390    2.9943 H       1  LIG1        0.0000
     27 H           1.3151    7.3467    5.1847 H       1  LIG1        0.0000
     28 H           1.6352    7.4759    3.5886 H       1  LIG1        0.0000
     29 H           3.8216    8.0528    3.9771 H       1  LIG1        0.0000
     30 H           2.9593    8.9408    5.0422 H       1  LIG1        0.0000
     31 H           4.5406    7.9991    6.5579 H       1  LIG1        0.0000
     32 H           4.5539    5.7191    6.8965 H       1  LIG1        0.0000
@<TRIPOS>BOND
     1     1     2    1
     2     2     3    1
     3     2     4    1
     4     4     5    1
     5     5     6    2
     6     5     7    1
     7     7     8   ar
     8     8     9   ar
     9     9    10   ar
    10    10    11   ar
    11    11    12   ar
    12    12     7   ar
    13    11    13    1
    14    13    14    1
    15    14    15    1
    16    15    16    2
    17    16    10    1
    18     1    17    1
    19     1    18    1
    20     1    19    1
    21     2    20    1
    22     3    21    1
    23     3    22    1
    24     3    23    1
    25     8    24    1
    26     9    25    1
    27    12    26    1
    28    13    27    1
    29    13    28    1
    30    14    29    1
    31    14    30    1
    32    15    31    1
    33    16    32    1
