@<TRIPOS>MOLECULE
*****
 32 33 0 0 0
SMALL
USER_CHARGES

@<TRIPOS>ATOM
      1 C1          1.8776    0.1224    0.1224 C.3     1  LIG1        0.0000
      2 C2          1.0000    1.0000    1.0000 C.3     1  LIG1        0.0000
      3 C3          0.1224    1.8776    0.1224 C.3     1  LIG1        0.0000
      4 O4          1.8198    1.8198    1.8198 O.3     1  LIG1        0.0000
      5 C5          1.6627    1.6627    3.1109 C.2     1  LIG1        0.0000
      6 O6          0.8666    0.8666    3.5259 O.2     1  LIG1        0.0000
      7 C7          2.4509    2.4509    4.0384 C.3     1  LIG1        0.0000
      8 C8          2.2908    2.2905    5.4107 C.3     1  LIG1        0.0000
      9 C9          3.0579    3.0568    6.2811 C.3     1  LIG1        0.0000
     10 C10         3.9813    3.9818    5.8019 C.3     1  LIG1        0.0000
     11 C11         4.1244    4.1272    4.4287 C.3     1  LIG1        0.0000
     12 C12         3.3694    3.3694    3.5409 C.3     1  LIG1        0.0000
     13 C13         5.1208    5.1332    3.8723 C.3     1  LIG1        0.0000
     14 C14         5.2450    6.3335    4.7966 C.3     1  LIG1        0.0000
     15 C15         5.4013    5.8978    6.2457 C.2     1  LIG1        0.0000
     16 C16         4.8128    4.7950    6.6733 C.2     1  LIG1        0.0000
     17 H           1.3002   -0.4549   -0.4549 H       1  LIG1        0.0000
     18 H           2.4549    0.6998   -0.4549 H       1  LIG1        0.0000
     19 H           2.4549   -0.4549    0.6998 H       1  LIG1        0.0000
     20 H           0.4226    0.4226    1.5774 H       1  LIG1        0.0000
     21 H          -0.4549    1.3002   -0.4549 H       1  LIG1        0.0000
     22 H          -0.4549    2.4549    0.6998 H       1  LIG1        0.0000
     23 H           0.6998    2.4549   -0.4549 H       1  LIG1        0.0000
     24 H           1.6301    1.6302    5.7680 H       1  LIG1        0.0000
     25 H           2.9444    2.9416    7.2679 H       1  LIG1        0.0000
     26 H           3.4856    3.4836    2.5542 H       1  LIG1        0.0000
     27 H           4.8088    5.4416    2.9737 H       1  LIG1        0.0000
     28 H           6.0148    4.6943    3.7822 H       1  LIG1        0.0000
     29 H           6.0455    6.8698    4.5290 H       1  LIG1        0.0000
     30 H           4.4230    6.8967    4.7121 H       1  LIG1        0.0000
     31 H           5.9503    6.4471    6.8756 H       1  LIG1        0.0000
     32 H           4.9432    4.5118    7.6235 H       1  LIG1        0.0000
@<TRIPOS>BOND
     1     1     2    1
     2     2     3    1
     3     2     4    1
     4     4     5    1
     5     5     6    2
     6     5     7    1
     7     7     8   ar
     8     8     9   ar
     9     9    10   ar
    10    10    11   ar
    11    11    12   ar
    12    12     7   ar
    13    11    13    1
    14    13    14    1
    15    14    15    1
    16    15    16    2
    17    16    10    1
    18     1    17    1
    19     1    18    1
    20     1    19    1
    21     2    20    1
    22     3    21    1
    23     3    22    1
    24     3    23    1
    25     8    24    1
    26     9    25    1
    27    12    26    1
    28    13    27    1
    29    13    28    1
    30    14    29    1
    31    14    30    1
    32    15    31    1
    33    16    32    1
