@<TRIPOS>MOLECULE
*****
 32 33 0 0 0
SMALL
USER_CHARGES

@<TRIPOS>ATOM
      1 C1          1.8776    0.1224    0.1224 C.3     1  LIG1        0.0000
      2 C2          1.0000    1.0000    1.0000 C.3     1  LIG1        0.0000
      3 C3          0.1224    1.8776    0.1224 C.3     1  LIG1        0.0000
      4 O4          1.8198    1.8198    1.8198 O.3     1  LIG1        0.0000
      5 C5          1.6627    1.6627    3.1109 C.2     1  LIG1        0.0000
      6 O6          0.8666    0.8666    3.5259 O.2     1  LIG1        0.0000
      7 C7          2.4509    2.4509    4.0384 C.3     1  LIG1        0.0000
      8 C8          3.1346    1.8345    5.0811 C.3     1  LIG1        0.0000
      9 C9          3.8845    2.6105    5.9579 C.3     1  LIG1        0.0000
     10 C10         3.9609    3.9926    5.8101 C.3     1  LIG1        0.0000
     11 C11         3.2698    4.5878    4.7635 C.3     1  LIG1        0.0000
     12 C12         2.5162    3.8306    3.8740 C.3     1  LIG1        0.0000
     13 C13         3.3279    6.0966    4.5772 C.3     1  LIG1        0.0000
     14 C14         3.4590    6.7987    5.9189 C.3     1  LIG1        0.0000
     15 C15         4.5267    6.1423    6.7810 C.2     1  LIG1        0.0000
     16 C16         4.7416    4.8417    6.6942 C.2     1  LIG1        0.0000
     17 H           1.3002   -0.4549   -0.4549 H       1  LIG1        0.0000
     18 H           2.4549    0.6998   -0.4549 H       1  LIG1        0.0000
     19 H           2.4549   -0.4549    0.6998 H       1  LIG1        0.0000
     20 H           0.4226    0.4226    1.5774 H       1  LIG1        0.0000
     21 H          -0.4549    1.3002   -0.4549 H       1  LIG1        0.0000
     22 H          -0.4549    2.4549    0.6998 H       1  LIG1        0.0000
     23 H           0.6998    2.4549   -0.4549 H       1  LIG1        0.0000
     24 H           3.0872    0.8426    5.1991 H       1  LIG1        0.0000
     25 H           4.3773    2.1683    6.7073 H       1  LIG1        0.0000
     26 H           2.0259    4.2735    3.1234 H       1  LIG1        0.0000
     27 H           2.4900    6.4042    4.1262 H       1  LIG1        0.0000
     28 H           4.1169    6.3269    4.0076 H       1  LIG1        0.0000
     29 H           3.7072    7.7549    5.7639 H       1  LIG1        0.0000
     30 H           2.5817    6.7554    6.3969 H       1  LIG1        0.0000
     31 H           5.0670    6.6963    7.4145 H       1  LIG1        0.0000
     32 H           5.4617    4.4298    7.2526 H       1  LIG1        0.0000
@<TRIPOS>BOND
     1     1     2    1
     2     2     3    1
     3     2     4    1
     4     4     5    1
     5     5     6    2
     6     5     7    1
     7     7     8   ar
     8     8     9   ar
     9     9    10   ar
    10    10    11   ar
    11    11    12   ar
    12    12     7   ar
    13    11    13    1
    14    13    14    1
    15    14    15    1
    16    15    16    2
    17    16    10    1
    18     1    17    1
    19     1    18    1
    20     1    19    1
    21     2    20    1
    22     3    21    1
    23     3    22    1
    24     3    23    1
    25     8    24    1
    26     9    25    1
    27    12    26    1
    28    13    27    1
    29    13    28    1
    30    14    29    1
    31    14    30    1
    32    15    31    1
    33    16    32    1
