@<TRIPOS>MOLECULE

  23   24
SMALL
USER_CHARGES
@<TRIPOS>ATOM
   1 N1           3.5285     0.8647    -0.0268 N.pl3        1    LIG   0.0000
   2 C2           2.1300     0.7989    -0.0146 C.2          1    LIG   0.0000
   3 C3           1.3934    -0.3479    -0.0196 C.2          1    LIG   0.0000
   4 C4           0.0355     0.0483     0.0012 C.2          1    LIG   0.0000
   5 C5           0.0013     1.4124     0.0099 C.2          1    LIG   0.0000
   6 N6           1.2873     1.8682     0.0021 N.pl3        1    LIG   0.0000
   7 C7           1.6717     3.2133     0.0095 C.ar         1    LIG   0.0000
   8 C8           1.8770     3.8838     1.2095 C.ar         1    LIG   0.0000
   9 F9           1.7029     3.2314     2.3545 F            1    LIG   0.0000
  10 C10          2.2584     5.2209     1.2220 C.ar         1    LIG   0.0000
  11 C11          2.4328     5.8787     0.0094 C.ar         1    LIG   0.0000
  12 O12          2.8027     7.1762     0.0174 O.3          1    LIG   0.0000
  13 C13          2.2335     5.2282    -1.2036 C.ar         1    LIG   0.0000
  14 C14          1.8519     3.8913    -1.1905 C.ar         1    LIG   0.0000
  15 F15          1.6580     3.2581    -2.3432 F            1    LIG   0.0000
  16 H            4.0686     0.0231    -0.0388 H            1    LIG   0.0000
  17 H            3.9873     1.7532    -0.0235 H            1    LIG   0.0000
  18 H            1.7436    -1.2844    -0.0348 H            1    LIG   0.0000
  19 H           -0.7569    -0.5617     0.0082 H            1    LIG   0.0000
  20 H           -0.8226     1.9792     0.0202 H            1    LIG   0.0000
  21 H            2.4045     5.7006     2.0872 H            1    LIG   0.0000
  22 H            2.9325     7.6644    -0.8456 H            1    LIG   0.0000
  23 H            2.3621     5.7129    -2.0688 H            1    LIG   0.0000
@<TRIPOS>BOND
   1        1        2 1
   2        2        3 2
   3        3        4 1
   4        4        5 2
   5        5        6 1
   6        6        2 1
   7        6        7 1
   8        7        8 ar
   9        8        9 1
  10        8       10 ar
  11       10       11 ar
  12       11       12 1
  13       11       13 ar
  14       13       14 ar
  15       14        7 ar
  16       14       15 1
  17        1       16 1
  18        1       17 1
  19        3       18 1
  20        4       19 1
  21        5       20 1
  22       10       21 1
  23       12       22 1
  24       13       23 1

@<TRIPOS>MOLECULE

  23   24
SMALL
USER_CHARGES
@<TRIPOS>ATOM
   1 N1           3.5285     0.8647    -0.0268 N.pl3        1    LIG   0.0000
   2 C2           2.1300     0.7989    -0.0146 C.2          1    LIG   0.0000
   3 C3           1.3934    -0.3479    -0.0196 C.2          1    LIG   0.0000
   4 C4           0.0355     0.0483     0.0012 C.2          1    LIG   0.0000
   5 C5           0.0013     1.4124     0.0099 C.2          1    LIG   0.0000
   6 N6           1.2873     1.8682     0.0021 N.pl3        1    LIG   0.0000
   7 C7           1.6717     3.2133     0.0095 C.ar         1    LIG   0.0000
   8 C8           2.2697     3.7720     1.1329 C.ar         1    LIG   0.0000
   9 F9           2.4727     3.0122     2.2045 F            1    LIG   0.0000
  10 C10          2.6529     5.1086     1.1453 C.ar         1    LIG   0.0000
  11 C11          2.4280     5.8801     0.0105 C.ar         1    LIG   0.0000
  12 O12          2.7982     7.1775     0.0187 O.3          1    LIG   0.0000
  13 C13          1.8316     5.3427    -1.1252 C.ar         1    LIG   0.0000
  14 C14          1.4567     4.0038    -1.1135 C.ar         1    LIG   0.0000
  15 F15          0.8855     3.4780    -2.1926 F            1    LIG   0.0000
  16 H            4.0686     0.0231    -0.0388 H            1    LIG   0.0000
  17 H            3.9873     1.7532    -0.0235 H            1    LIG   0.0000
  18 H            1.7436    -1.2844    -0.0348 H            1    LIG   0.0000
  19 H           -0.7569    -0.5617     0.0082 H            1    LIG   0.0000
  20 H           -0.8226     1.9792     0.0202 H            1    LIG   0.0000
  21 H            3.0822     5.5077     1.9555 H            1    LIG   0.0000
  22 H            2.6438     7.7466    -0.7889 H            1    LIG   0.0000
  23 H            1.6753     5.9084    -1.9348 H            1    LIG   0.0000
@<TRIPOS>BOND
   1        1        2 1
   2        2        3 2
   3        3        4 1
   4        4        5 2
   5        5        6 1
   6        6        2 1
   7        6        7 1
   8        7        8 ar
   9        8        9 1
  10        8       10 ar
  11       10       11 ar
  12       11       12 1
  13       11       13 ar
  14       13       14 ar
  15       14        7 ar
  16       14       15 1
  17        1       16 1
  18        1       17 1
  19        3       18 1
  20        4       19 1
  21        5       20 1
  22       10       21 1
  23       12       22 1
  24       13       23 1

@<TRIPOS>MOLECULE

  23   24
SMALL
USER_CHARGES
@<TRIPOS>ATOM
   1 N1           3.5285     0.8647    -0.0268 N.pl3        1    LIG   0.0000
   2 C2           2.1300     0.7989    -0.0146 C.2          1    LIG   0.0000
   3 C3           1.3934    -0.3479    -0.0196 C.2          1    LIG   0.0000
   4 C4           0.0355     0.0483     0.0012 C.2          1    LIG   0.0000
   5 C5           0.0013     1.4124     0.0099 C.2          1    LIG   0.0000
   6 N6           1.2873     1.8682     0.0021 N.pl3        1    LIG   0.0000
   7 C7           1.6717     3.2133     0.0095 C.ar         1    LIG   0.0000
   8 C8           1.4829     3.9968     1.1419 C.ar         1    LIG   0.0000
   9 F9           0.9305     3.4528     2.2216 F            1    LIG   0.0000
  10 C10          1.8626     5.3343     1.1539 C.ar         1    LIG   0.0000
  11 C11          2.4377     5.8773     0.0102 C.ar         1    LIG   0.0000
  12 O12          2.8073     7.1749     0.0178 O.3          1    LIG   0.0000
  13 C13          2.6367     5.1126    -1.1344 C.ar         1    LIG   0.0000
  14 C14          2.2484     3.7776    -1.1224 C.ar         1    LIG   0.0000
  15 F15          2.4331     3.0359    -2.2100 F            1    LIG   0.0000
  16 H            4.0686     0.0231    -0.0388 H            1    LIG   0.0000
  17 H            3.9873     1.7532    -0.0235 H            1    LIG   0.0000
  18 H            1.7436    -1.2844    -0.0348 H            1    LIG   0.0000
  19 H           -0.7569    -0.5617     0.0082 H            1    LIG   0.0000
  20 H           -0.8226     1.9792     0.0202 H            1    LIG   0.0000
  21 H            1.7247     5.8955     1.9700 H            1    LIG   0.0000
  22 H            3.2223     7.5814    -0.7961 H            1    LIG   0.0000
  23 H            3.0512     5.5154    -1.9505 H            1    LIG   0.0000
@<TRIPOS>BOND
   1        1        2 1
   2        2        3 2
   3        3        4 1
   4        4        5 2
   5        5        6 1
   6        6        2 1
   7        6        7 1
   8        7        8 ar
   9        8        9 1
  10        8       10 ar
  11       10       11 ar
  12       11       12 1
  13       11       13 ar
  14       13       14 ar
  15       14        7 ar
  16       14       15 1
  17        1       16 1
  18        1       17 1
  19        3       18 1
  20        4       19 1
  21        5       20 1
  22       10       21 1
  23       12       22 1
  24       13       23 1

@<TRIPOS>MOLECULE

  23   24
SMALL
USER_CHARGES
@<TRIPOS>ATOM
   1 N1           3.5285     0.8647    -0.0268 N.pl3        1    LIG   0.0000
   2 C2           2.1300     0.7989    -0.0146 C.2          1    LIG   0.0000
   3 C3           1.3934    -0.3479    -0.0196 C.2          1    LIG   0.0000
   4 C4           0.0355     0.0483     0.0012 C.2          1    LIG   0.0000
   5 C5           0.0013     1.4124     0.0099 C.2          1    LIG   0.0000
   6 N6           1.2873     1.8682     0.0021 N.pl3        1    LIG   0.0000
   7 C7           1.6717     3.2133     0.0095 C.ar         1    LIG   0.0000
   8 C8           2.6138     3.6748     0.9212 C.ar         1    LIG   0.0000
   9 F9           3.1473     2.8217     1.7898 F            1    LIG   0.0000
  10 C10          2.9985     5.0110     0.9329 C.ar         1    LIG   0.0000
  11 C11          2.4238     5.8813     0.0132 C.ar         1    LIG   0.0000
  12 O12          2.7944     7.1786     0.0215 O.3          1    LIG   0.0000
  13 C13          1.4795     5.4421    -0.9086 C.ar         1    LIG   0.0000
  14 C14          1.1105     4.1015    -0.9006 C.ar         1    LIG   0.0000
  15 F15          0.2087     3.6691    -1.7764 F            1    LIG   0.0000
  16 H            4.0686     0.0231    -0.0388 H            1    LIG   0.0000
  17 H            3.9873     1.7532    -0.0235 H            1    LIG   0.0000
  18 H            1.7436    -1.2844    -0.0348 H            1    LIG   0.0000
  19 H           -0.7569    -0.5617     0.0082 H            1    LIG   0.0000
  20 H           -0.8226     1.9792     0.0202 H            1    LIG   0.0000
  21 H            3.6761     5.3400     1.5907 H            1    LIG   0.0000
  22 H            2.3910     7.8180    -0.6330 H            1    LIG   0.0000
  23 H            1.0736     6.0783    -1.5647 H            1    LIG   0.0000
@<TRIPOS>BOND
   1        1        2 1
   2        2        3 2
   3        3        4 1
   4        4        5 2
   5        5        6 1
   6        6        2 1
   7        6        7 1
   8        7        8 ar
   9        8        9 1
  10        8       10 ar
  11       10       11 ar
  12       11       12 1
  13       11       13 ar
  14       13       14 ar
  15       14        7 ar
  16       14       15 1
  17        1       16 1
  18        1       17 1
  19        3       18 1
  20        4       19 1
  21        5       20 1
  22       10       21 1
  23       12       22 1
  24       13       23 1

@<TRIPOS>MOLECULE

  23   24
SMALL
USER_CHARGES
@<TRIPOS>ATOM
   1 N1           3.5285     0.8647    -0.0268 N.pl3        1    LIG   0.0000
   2 C2           2.1300     0.7989    -0.0146 C.2          1    LIG   0.0000
   3 C3           1.3934    -0.3479    -0.0196 C.2          1    LIG   0.0000
   4 C4           0.0355     0.0483     0.0012 C.2          1    LIG   0.0000
   5 C5           0.0013     1.4124     0.0099 C.2          1    LIG   0.0000
   6 N6           1.2873     1.8682     0.0021 N.pl3        1    LIG   0.0000
   7 C7           1.6717     3.2133     0.0095 C.ar         1    LIG   0.0000
   8 C8           1.1350     4.0973     0.9382 C.ar         1    LIG   0.0000
   9 F9           0.2488     3.6498     1.8220 F            1    LIG   0.0000
  10 C10          1.5134     5.4353     0.9490 C.ar         1    LIG   0.0000
  11 C11          2.4420     5.8761     0.0126 C.ar         1    LIG   0.0000
  12 O12          2.8115     7.1737     0.0198 O.3          1    LIG   0.0000
  13 C13          2.9927     5.0098    -0.9258 C.ar         1    LIG   0.0000
  14 C14          2.5984     3.6765    -0.9172 C.ar         1    LIG   0.0000
  15 F15          3.1172     2.8383    -1.8091 F            1    LIG   0.0000
  16 H            4.0686     0.0231    -0.0388 H            1    LIG   0.0000
  17 H            3.9873     1.7532    -0.0235 H            1    LIG   0.0000
  18 H            1.7436    -1.2844    -0.0348 H            1    LIG   0.0000
  19 H           -0.7569    -0.5617     0.0082 H            1    LIG   0.0000
  20 H           -0.8226     1.9792     0.0202 H            1    LIG   0.0000
  21 H            1.1248     6.0689     1.6180 H            1    LIG   0.0000
  22 H            3.4782     7.5074    -0.6466 H            1    LIG   0.0000
  23 H            3.6595     5.3396    -1.5941 H            1    LIG   0.0000
@<TRIPOS>BOND
   1        1        2 1
   2        2        3 2
   3        3        4 1
   4        4        5 2
   5        5        6 1
   6        6        2 1
   7        6        7 1
   8        7        8 ar
   9        8        9 1
  10        8       10 ar
  11       10       11 ar
  12       11       12 1
  13       11       13 ar
  14       13       14 ar
  15       14        7 ar
  16       14       15 1
  17        1       16 1
  18        1       17 1
  19        3       18 1
  20        4       19 1
  21        5       20 1
  22       10       21 1
  23       12       22 1
  24       13       23 1

