@<TRIPOS>MOLECULE
*****
 23 24 0 0 0
SMALL
USER_CHARGES

@<TRIPOS>ATOM
      1 N1          3.5285    0.8647   -0.0268 N.pl3   1  LIG1        0.0000
      2 C2          2.1300    0.7989   -0.0146 C.2     1  LIG1        0.0000
      3 C3          1.3934   -0.3479   -0.0196 C.2     1  LIG1        0.0000
      4 C4          0.0355    0.0483    0.0012 C.2     1  LIG1        0.0000
      5 C5          0.0013    1.4124    0.0099 C.2     1  LIG1        0.0000
      6 N6          1.2873    1.8682    0.0021 N.pl3   1  LIG1        0.0000
      7 C7          1.6717    3.2133    0.0095 C.ar    1  LIG1        0.0000
      8 C8          1.1350    4.0973    0.9382 C.ar    1  LIG1        0.0000
      9 F9          0.2488    3.6498    1.8220 F       1  LIG1        0.0000
     10 C10         1.5134    5.4353    0.9490 C.ar    1  LIG1        0.0000
     11 C11         2.4420    5.8761    0.0126 C.ar    1  LIG1        0.0000
     12 O12         2.8115    7.1737    0.0198 O.3     1  LIG1        0.0000
     13 C13         2.9927    5.0098   -0.9258 C.ar    1  LIG1        0.0000
     14 C14         2.5984    3.6765   -0.9172 C.ar    1  LIG1        0.0000
     15 F15         3.1172    2.8383   -1.8091 F       1  LIG1        0.0000
     16 H           4.0686    0.0231   -0.0388 H       1  LIG1        0.0000
     17 H           3.9873    1.7532   -0.0235 H       1  LIG1        0.0000
     18 H           1.7436   -1.2844   -0.0348 H       1  LIG1        0.0000
     19 H          -0.7569   -0.5617    0.0082 H       1  LIG1        0.0000
     20 H          -0.8226    1.9792    0.0202 H       1  LIG1        0.0000
     21 H           1.1248    6.0689    1.6180 H       1  LIG1        0.0000
     22 H           3.4782    7.5074   -0.6466 H       1  LIG1        0.0000
     23 H           3.6595    5.3396   -1.5941 H       1  LIG1        0.0000
@<TRIPOS>BOND
     1     1     2    1
     2     2     3    2
     3     3     4    1
     4     4     5    2
     5     5     6    1
     6     6     2    1
     7     6     7    1
     8     7     8   ar
     9     8     9    1
    10     8    10   ar
    11    10    11   ar
    12    11    12    1
    13    11    13   ar
    14    13    14   ar
    15    14     7   ar
    16    14    15    1
    17     1    16    1
    18     1    17    1
    19     3    18    1
    20     4    19    1
    21     5    20    1
    22    10    21    1
    23    12    22    1
    24    13    23    1
