@<TRIPOS>MOLECULE
*****
 24 26 0 0 0
SMALL
USER_CHARGES

@<TRIPOS>ATOM
      1 C1          1.0000    1.0000    1.0000 C.3     1  LIG1        0.0000
      2 C2          1.8800    1.8800    1.8800 C.3     1  LIG1        0.0000
      3 C3          3.2528    1.6458    1.9239 C.3     1  LIG1        0.0000
      4 C4          4.0485    2.4702    2.7140 C.3     1  LIG1        0.0000
      5 C5          3.5062    3.5141    3.4618 C.3     1  LIG1        0.0000
      6 C6          2.1327    3.7596    3.4524 C.3     1  LIG1        0.0000
      7 C7          1.3586    2.9259    2.6424 C.3     1  LIG1        0.0000
      8 N8          1.5959    4.8060    4.2217 N.am    1  LIG1        0.0000
      9 C9          2.4229    5.7561    4.7162 C.2     1  LIG1        0.0000
     10 N10         1.6932    6.6225    5.3826 N.2     1  LIG1        0.0000
     11 N11         0.4235    6.2976    5.3730 N.am    1  LIG1        0.0000
     12 C12         0.3486    5.1505    4.6473 C.2     1  LIG1        0.0000
     13 O13        -0.6824    4.5387    4.4189 O.2     1  LIG1        0.0000
     14 C14         3.9162    5.6661    4.4340 C.3     1  LIG1        0.0000
     15 O15         4.2976    4.3159    4.2100 O.2     1  LIG1        0.0000
     16 H          -0.3308    6.7897    5.8076 H       1  LIG1        0.0000
     17 H           1.5662    0.3151    0.5414 H       1  LIG1        0.0000
     18 H           0.3151    0.5414    1.5662 H       1  LIG1        0.0000
     19 H           0.5414    1.5662    0.3151 H       1  LIG1        0.0000
     20 H           3.6589    0.8990    1.3973 H       1  LIG1        0.0000
     21 H           5.0350    2.3094    2.7460 H       1  LIG1        0.0000
     22 H           0.3725    3.0881    2.6066 H       1  LIG1        0.0000
     23 H           4.1312    6.2082    3.6217 H       1  LIG1        0.0000
     24 H           4.4219    6.0256    5.2182 H       1  LIG1        0.0000
@<TRIPOS>BOND
     1     1     2    1
     2     2     3   ar
     3     3     4   ar
     4     4     5   ar
     5     5     6   ar
     6     6     7   ar
     7     7     2   ar
     8     6     8    1
     9     8     9    1
    10     9    10    2
    11    10    11    1
    12    11    12   am
    13    12     8   am
    14    12    13    2
    15     9    14    1
    16    14    15    1
    17    15     5    1
    18    11    16    1
    19     1    17    1
    20     1    18    1
    21     1    19    1
    22     3    20    1
    23     4    21    1
    24     7    22    1
    25    14    23    1
    26    14    24    1
