@<TRIPOS>MOLECULE
*****
 24 26 0 0 0
SMALL
USER_CHARGES

@<TRIPOS>ATOM
      1 C1          1.0000    1.0000    1.0000 C.3     1  LIG1        0.0000
      2 C2          1.8773    1.8773    1.8773 C.3     1  LIG1        0.0000
      3 C3          1.4051    2.3675    3.0910 C.3     1  LIG1        0.0000
      4 C4          2.2334    3.1703    3.8690 C.3     1  LIG1        0.0000
      5 C5          3.5226    3.4904    3.4541 C.3     1  LIG1        0.0000
      6 C6          4.0115    3.0097    2.2446 C.3     1  LIG1        0.0000
      7 C7          3.1688    2.2065    1.4787 C.3     1  LIG1        0.0000
      8 N8          5.3133    3.3394    1.8250 N.am    1  LIG1        0.0000
      9 C9          6.0320    4.3104    2.4360 C.2     1  LIG1        0.0000
     10 N10         7.2018    4.4059    1.8356 N.2     1  LIG1        0.0000
     11 N11         7.3031    3.5463    0.8530 N.am    1  LIG1        0.0000
     12 C12         6.1265    2.8640    0.8361 C.2     1  LIG1        0.0000
     13 O13         5.8561    1.9694    0.0483 O.2     1  LIG1        0.0000
     14 C14         5.3635    5.0461    3.5887 C.3     1  LIG1        0.0000
     15 O15         4.3385    4.2707    4.1939 O.2     1  LIG1        0.0000
     16 H           8.0840    3.4179    0.2416 H       1  LIG1        0.0000
     17 H           0.1123    0.8690    1.4414 H       1  LIG1        0.0000
     18 H           0.8690    1.4414    0.1123 H       1  LIG1        0.0000
     19 H           1.4414    0.1123    0.8690 H       1  LIG1        0.0000
     20 H           0.4806    2.1452    3.4007 H       1  LIG1        0.0000
     21 H           1.8964    3.5236    4.7416 H       1  LIG1        0.0000
     22 H           3.5063    1.8522    0.6066 H       1  LIG1        0.0000
     23 H           6.0549    5.2613    4.2783 H       1  LIG1        0.0000
     24 H           4.9637    5.8944    3.2414 H       1  LIG1        0.0000
@<TRIPOS>BOND
     1     1     2    1
     2     2     3   ar
     3     3     4   ar
     4     4     5   ar
     5     5     6   ar
     6     6     7   ar
     7     7     2   ar
     8     6     8    1
     9     8     9    1
    10     9    10    2
    11    10    11    1
    12    11    12   am
    13    12     8   am
    14    12    13    2
    15     9    14    1
    16    14    15    1
    17    15     5    1
    18    11    16    1
    19     1    17    1
    20     1    18    1
    21     1    19    1
    22     3    20    1
    23     4    21    1
    24     7    22    1
    25    14    23    1
    26    14    24    1
