@<TRIPOS>MOLECULE

  33   34
SMALL
USER_CHARGES
@<TRIPOS>ATOM
   1 C1           2.9943     5.4927     1.9892 C.3          1    LIG   0.0000
   2 C2           2.8370     4.0266     2.3587 C.ar         1    LIG   0.0000
   3 C3           2.0344     3.2221     1.5562 C.ar         1    LIG   0.0000
   4 C4           1.8776     1.8776     1.8776 C.ar         1    LIG   0.0000
   5 C5           1.0000     1.0000     1.0000 C.3          1    LIG   0.0000
   6 C6           0.4281     1.8312    -0.1368 C.3          1    LIG   0.0000
   7 C7          -0.1368     0.4281     1.8312 C.3          1    LIG   0.0000
   8 C8           1.8312    -0.1368     0.4281 C.2          1    LIG   0.0000
   9 O9           2.2641    -0.0670    -0.7425 O.co2        1    LIG   0.0000
  10 O10          2.0738    -1.1094     1.1059 O.co2        1    LIG  -1.0000
  11 C11          2.5113     1.3289     2.9880 C.ar         1    LIG   0.0000
  12 C12          3.3124     2.1388     3.7863 C.ar         1    LIG   0.0000
  13 C13          3.4745     3.4842     3.4705 C.ar         1    LIG   0.0000
  14 C14          4.3162     4.2940     4.3248 C.2          1    LIG   0.0000
  15 C15          4.9698     3.8379     5.4263 C.2          1    LIG   0.0000
  16 C16          5.6542     4.9598     5.9451 C.2          1    LIG   0.0000
  17 C17          5.3665     6.0061     5.1216 C.2          1    LIG   0.0000
  18 O18          4.5706     5.5744     4.1664 O.2          1    LIG   0.0000
  19 H            2.4623     5.6877     1.1651 H            1    LIG   0.0000
  20 H            2.6648     6.0633     2.7414 H            1    LIG   0.0000
  21 H            3.9592     5.6916     1.8178 H            1    LIG   0.0000
  22 H            1.5745     3.6067     0.7558 H            1    LIG   0.0000
  23 H           -0.1493     1.2539    -0.7142 H            1    LIG   0.0000
  24 H           -0.1188     2.5791     0.2394 H            1    LIG   0.0000
  25 H            1.1760     2.2075    -0.6837 H            1    LIG   0.0000
  26 H           -0.7142    -0.1493     1.2539 H            1    LIG   0.0000
  27 H            0.2394    -0.1188     2.5791 H            1    LIG   0.0000
  28 H           -0.6837     1.1760     2.2075 H            1    LIG   0.0000
  29 H            2.3921     0.3612     3.2101 H            1    LIG   0.0000
  30 H            3.7717     1.7542     4.5870 H            1    LIG   0.0000
  31 H            4.9668     2.9070     5.7914 H            1    LIG   0.0000
  32 H            6.2361     4.9815     6.7580 H            1    LIG   0.0000
  33 H            5.7025     6.9422     5.2252 H            1    LIG   0.0000
@<TRIPOS>BOND
   1        1        2 1
   2        2        3 ar
   3        3        4 ar
   4        4        5 1
   5        5        6 1
   6        5        7 1
   7        5        8 1
   8        8        9 ar
   9        8       10 ar
  10        4       11 ar
  11       11       12 ar
  12       12       13 ar
  13       13        2 ar
  14       13       14 1
  15       14       15 2
  16       15       16 1
  17       16       17 2
  18       17       18 1
  19       18       14 1
  20        1       19 1
  21        1       20 1
  22        1       21 1
  23        3       22 1
  24        6       23 1
  25        6       24 1
  26        6       25 1
  27        7       26 1
  28        7       27 1
  29        7       28 1
  30       11       29 1
  31       12       30 1
  32       15       31 1
  33       16       32 1
  34       17       33 1

@<TRIPOS>MOLECULE

  33   34
SMALL
USER_CHARGES
@<TRIPOS>ATOM
   1 C1           4.6517     1.4136     4.4110 C.3          1    LIG   0.0000
   2 C2           3.6262     2.0846     3.5114 C.ar         1    LIG   0.0000
   3 C3           2.8221     1.2826     2.7080 C.ar         1    LIG   0.0000
   4 C4           1.8776     1.8776     1.8776 C.ar         1    LIG   0.0000
   5 C5           1.0000     1.0000     1.0000 C.3          1    LIG   0.0000
   6 C6           0.4281     1.8312    -0.1368 C.3          1    LIG   0.0000
   7 C7          -0.1368     0.4281     1.8312 C.3          1    LIG   0.0000
   8 C8           1.8312    -0.1368     0.4281 C.2          1    LIG   0.0000
   9 O9           2.2641    -0.0670    -0.7425 O.co2        1    LIG   0.0000
  10 O10          2.0738    -1.1094     1.1059 O.co2        1    LIG  -1.0000
  11 C11          1.7274     3.2603     1.8406 C.ar         1    LIG   0.0000
  12 C12          2.5347     4.0564     2.6464 C.ar         1    LIG   0.0000
  13 C13          3.4809     3.4683     3.4800 C.ar         1    LIG   0.0000
  14 C14          4.3013     4.3300     4.3037 C.2          1    LIG   0.0000
  15 C15          4.2195     5.6869     4.3277 C.2          1    LIG   0.0000
  16 C16          5.1987     6.1032     5.2570 C.2          1    LIG   0.0000
  17 C17          5.7964     4.9723     5.7255 C.2          1    LIG   0.0000
  18 O18          5.2363     3.9352     5.1399 O.2          1    LIG   0.0000
  19 H            4.6021     0.4220     4.2911 H            1    LIG   0.0000
  20 H            5.5677     1.7332     4.1686 H            1    LIG   0.0000
  21 H            4.4597     1.6440     5.3649 H            1    LIG   0.0000
  22 H            2.9220     0.2878     2.7271 H            1    LIG   0.0000
  23 H           -0.1493     1.2539    -0.7142 H            1    LIG   0.0000
  24 H           -0.1188     2.5791     0.2394 H            1    LIG   0.0000
  25 H            1.1760     2.2075    -0.6837 H            1    LIG   0.0000
  26 H           -0.7142    -0.1493     1.2539 H            1    LIG   0.0000
  27 H            0.2394    -0.1188     2.5791 H            1    LIG   0.0000
  28 H           -0.6837     1.1760     2.2075 H            1    LIG   0.0000
  29 H            1.0454     3.6778     1.2402 H            1    LIG   0.0000
  30 H            2.4351     5.0512     2.6267 H            1    LIG   0.0000
  31 H            3.5986     6.2666     3.8000 H            1    LIG   0.0000
  32 H            5.4115     7.0444     5.5197 H            1    LIG   0.0000
  33 H            6.5345     4.9362     6.3992 H            1    LIG   0.0000
@<TRIPOS>BOND
   1        1        2 1
   2        2        3 ar
   3        3        4 ar
   4        4        5 1
   5        5        6 1
   6        5        7 1
   7        5        8 1
   8        8        9 ar
   9        8       10 ar
  10        4       11 ar
  11       11       12 ar
  12       12       13 ar
  13       13        2 ar
  14       13       14 1
  15       14       15 2
  16       15       16 1
  17       16       17 2
  18       17       18 1
  19       18       14 1
  20        1       19 1
  21        1       20 1
  22        1       21 1
  23        3       22 1
  24        6       23 1
  25        6       24 1
  26        6       25 1
  27        7       26 1
  28        7       27 1
  29        7       28 1
  30       11       29 1
  31       12       30 1
  32       15       31 1
  33       16       32 1
  34       17       33 1

@<TRIPOS>MOLECULE

  33   34
SMALL
USER_CHARGES
@<TRIPOS>ATOM
   1 C1           4.6517     1.4136     4.4110 C.3          1    LIG   0.0000
   2 C2           3.6262     2.0846     3.5114 C.ar         1    LIG   0.0000
   3 C3           2.8221     1.2826     2.7080 C.ar         1    LIG   0.0000
   4 C4           1.8776     1.8776     1.8776 C.ar         1    LIG   0.0000
   5 C5           1.0000     1.0000     1.0000 C.3          1    LIG   0.0000
   6 C6           0.4281     1.8312    -0.1368 C.3          1    LIG   0.0000
   7 C7          -0.1368     0.4281     1.8312 C.3          1    LIG   0.0000
   8 C8           1.8312    -0.1368     0.4281 C.2          1    LIG   0.0000
   9 O9           1.7789    -1.2723     0.9480 O.co2        1    LIG   0.0000
  10 O10          2.5435     0.0574    -0.5306 O.co2        1    LIG  -1.0000
  11 C11          1.7274     3.2603     1.8406 C.ar         1    LIG   0.0000
  12 C12          2.5347     4.0564     2.6464 C.ar         1    LIG   0.0000
  13 C13          3.4809     3.4683     3.4800 C.ar         1    LIG   0.0000
  14 C14          4.3013     4.3300     4.3037 C.2          1    LIG   0.0000
  15 C15          4.3449     4.2919     5.6621 C.2          1    LIG   0.0000
  16 C16          5.2621     5.3000     6.0342 C.2          1    LIG   0.0000
  17 C17          5.7046     5.8694     4.8785 C.2          1    LIG   0.0000
  18 O18          5.1152     5.2664     3.8679 O.2          1    LIG   0.0000
  19 H            4.6021     0.4220     4.2911 H            1    LIG   0.0000
  20 H            5.5677     1.7332     4.1686 H            1    LIG   0.0000
  21 H            4.4597     1.6440     5.3649 H            1    LIG   0.0000
  22 H            2.9220     0.2878     2.7271 H            1    LIG   0.0000
  23 H           -0.1493     1.2539    -0.7142 H            1    LIG   0.0000
  24 H           -0.1188     2.5791     0.2394 H            1    LIG   0.0000
  25 H            1.1760     2.2075    -0.6837 H            1    LIG   0.0000
  26 H           -0.7142    -0.1493     1.2539 H            1    LIG   0.0000
  27 H            0.2394    -0.1188     2.5791 H            1    LIG   0.0000
  28 H           -0.6837     1.1760     2.2075 H            1    LIG   0.0000
  29 H            1.0454     3.6778     1.2402 H            1    LIG   0.0000
  30 H            2.4351     5.0512     2.6267 H            1    LIG   0.0000
  31 H            3.8362     3.6806     6.2684 H            1    LIG   0.0000
  32 H            5.5335     5.5472     6.9644 H            1    LIG   0.0000
  33 H            6.3644     6.6176     4.8097 H            1    LIG   0.0000
@<TRIPOS>BOND
   1        1        2 1
   2        2        3 ar
   3        3        4 ar
   4        4        5 1
   5        5        6 1
   6        5        7 1
   7        5        8 1
   8        8        9 ar
   9        8       10 ar
  10        4       11 ar
  11       11       12 ar
  12       12       13 ar
  13       13        2 ar
  14       13       14 1
  15       14       15 2
  16       15       16 1
  17       16       17 2
  18       17       18 1
  19       18       14 1
  20        1       19 1
  21        1       20 1
  22        1       21 1
  23        3       22 1
  24        6       23 1
  25        6       24 1
  26        6       25 1
  27        7       26 1
  28        7       27 1
  29        7       28 1
  30       11       29 1
  31       12       30 1
  32       15       31 1
  33       16       32 1
  34       17       33 1

@<TRIPOS>MOLECULE

  33   34
SMALL
USER_CHARGES
@<TRIPOS>ATOM
   1 C1           5.4927     1.9892     2.9943 C.3          1    LIG   0.0000
   2 C2           4.0266     2.3587     2.8370 C.ar         1    LIG   0.0000
   3 C3           3.2221     1.5562     2.0344 C.ar         1    LIG   0.0000
   4 C4           1.8776     1.8776     1.8776 C.ar         1    LIG   0.0000
   5 C5           1.0000     1.0000     1.0000 C.3          1    LIG   0.0000
   6 C6           0.4281     1.8312    -0.1368 C.3          1    LIG   0.0000
   7 C7          -0.1368     0.4281     1.8312 C.3          1    LIG   0.0000
   8 C8           1.8312    -0.1368     0.4281 C.2          1    LIG   0.0000
   9 O9           1.7789    -1.2723     0.9480 O.co2        1    LIG   0.0000
  10 O10          2.5435     0.0574    -0.5306 O.co2        1    LIG  -1.0000
  11 C11          1.3289     2.9880     2.5113 C.ar         1    LIG   0.0000
  12 C12          2.1388     3.7863     3.3124 C.ar         1    LIG   0.0000
  13 C13          3.4842     3.4705     3.4745 C.ar         1    LIG   0.0000
  14 C14          4.2940     4.3248     4.3162 C.2          1    LIG   0.0000
  15 C15          5.3935     5.0070     3.8989 C.2          1    LIG   0.0000
  16 C16          5.8622     5.6937     5.0411 C.2          1    LIG   0.0000
  17 C17          5.0142     5.3787     6.0597 C.2          1    LIG   0.0000
  18 O18          4.0911     4.5649     5.5931 O.2          1    LIG   0.0000
  19 H            5.6877     1.1651     2.4623 H            1    LIG   0.0000
  20 H            6.0633     2.7414     2.6648 H            1    LIG   0.0000
  21 H            5.6916     1.8178     3.9592 H            1    LIG   0.0000
  22 H            3.6067     0.7558     1.5745 H            1    LIG   0.0000
  23 H           -0.1493     1.2539    -0.7142 H            1    LIG   0.0000
  24 H           -0.1188     2.5791     0.2394 H            1    LIG   0.0000
  25 H            1.1760     2.2075    -0.6837 H            1    LIG   0.0000
  26 H           -0.7142    -0.1493     1.2539 H            1    LIG   0.0000
  27 H            0.2394    -0.1188     2.5791 H            1    LIG   0.0000
  28 H           -0.6837     1.1760     2.2075 H            1    LIG   0.0000
  29 H            0.3612     3.2101     2.3921 H            1    LIG   0.0000
  30 H            1.7542     4.5870     3.7717 H            1    LIG   0.0000
  31 H            5.7866     5.0199     2.9795 H            1    LIG   0.0000
  32 H            6.6605     6.2938     5.0920 H            1    LIG   0.0000
  33 H            5.0816     5.7093     7.0011 H            1    LIG   0.0000
@<TRIPOS>BOND
   1        1        2 1
   2        2        3 ar
   3        3        4 ar
   4        4        5 1
   5        5        6 1
   6        5        7 1
   7        5        8 1
   8        8        9 ar
   9        8       10 ar
  10        4       11 ar
  11       11       12 ar
  12       12       13 ar
  13       13        2 ar
  14       13       14 1
  15       14       15 2
  16       15       16 1
  17       16       17 2
  18       17       18 1
  19       18       14 1
  20        1       19 1
  21        1       20 1
  22        1       21 1
  23        3       22 1
  24        6       23 1
  25        6       24 1
  26        6       25 1
  27        7       26 1
  28        7       27 1
  29        7       28 1
  30       11       29 1
  31       12       30 1
  32       15       31 1
  33       16       32 1
  34       17       33 1

@<TRIPOS>MOLECULE

  33   34
SMALL
USER_CHARGES
@<TRIPOS>ATOM
   1 C1           5.4927     1.9892     2.9943 C.3          1    LIG   0.0000
   2 C2           4.0266     2.3587     2.8370 C.ar         1    LIG   0.0000
   3 C3           3.2221     1.5562     2.0344 C.ar         1    LIG   0.0000
   4 C4           1.8776     1.8776     1.8776 C.ar         1    LIG   0.0000
   5 C5           1.0000     1.0000     1.0000 C.3          1    LIG   0.0000
   6 C6           0.4281     1.8312    -0.1368 C.3          1    LIG   0.0000
   7 C7          -0.1368     0.4281     1.8312 C.3          1    LIG   0.0000
   8 C8           1.8312    -0.1368     0.4281 C.2          1    LIG   0.0000
   9 O9           2.2641    -0.0670    -0.7425 O.co2        1    LIG   0.0000
  10 O10          2.0738    -1.1094     1.1059 O.co2        1    LIG  -1.0000
  11 C11          1.3289     2.9880     2.5113 C.ar         1    LIG   0.0000
  12 C12          2.1388     3.7863     3.3124 C.ar         1    LIG   0.0000
  13 C13          3.4842     3.4705     3.4745 C.ar         1    LIG   0.0000
  14 C14          4.2940     4.3248     4.3162 C.2          1    LIG   0.0000
  15 C15          4.9520     3.9140     5.4328 C.2          1    LIG   0.0000
  16 C16          5.5978     5.0677     5.9308 C.2          1    LIG   0.0000
  17 C17          5.2853     6.0858     5.0814 C.2          1    LIG   0.0000
  18 O18          4.5107     5.6084     4.1303 O.2          1    LIG   0.0000
  19 H            5.6877     1.1651     2.4623 H            1    LIG   0.0000
  20 H            6.0633     2.7414     2.6648 H            1    LIG   0.0000
  21 H            5.6916     1.8178     3.9592 H            1    LIG   0.0000
  22 H            3.6067     0.7558     1.5745 H            1    LIG   0.0000
  23 H           -0.1493     1.2539    -0.7142 H            1    LIG   0.0000
  24 H           -0.1188     2.5791     0.2394 H            1    LIG   0.0000
  25 H            1.1760     2.2075    -0.6837 H            1    LIG   0.0000
  26 H           -0.7142    -0.1493     1.2539 H            1    LIG   0.0000
  27 H            0.2394    -0.1188     2.5791 H            1    LIG   0.0000
  28 H           -0.6837     1.1760     2.2075 H            1    LIG   0.0000
  29 H            0.3612     3.2101     2.3921 H            1    LIG   0.0000
  30 H            1.7542     4.5870     3.7717 H            1    LIG   0.0000
  31 H            4.9741     2.9920     5.8192 H            1    LIG   0.0000
  32 H            6.1721     5.1256     6.7474 H            1    LIG   0.0000
  33 H            5.5920     7.0339     5.1659 H            1    LIG   0.0000
@<TRIPOS>BOND
   1        1        2 1
   2        2        3 ar
   3        3        4 ar
   4        4        5 1
   5        5        6 1
   6        5        7 1
   7        5        8 1
   8        8        9 ar
   9        8       10 ar
  10        4       11 ar
  11       11       12 ar
  12       12       13 ar
  13       13        2 ar
  14       13       14 1
  15       14       15 2
  16       15       16 1
  17       16       17 2
  18       17       18 1
  19       18       14 1
  20        1       19 1
  21        1       20 1
  22        1       21 1
  23        3       22 1
  24        6       23 1
  25        6       24 1
  26        6       25 1
  27        7       26 1
  28        7       27 1
  29        7       28 1
  30       11       29 1
  31       12       30 1
  32       15       31 1
  33       16       32 1
  34       17       33 1

@<TRIPOS>MOLECULE

  33   34
SMALL
USER_CHARGES
@<TRIPOS>ATOM
   1 C1           3.2680     1.8105     5.3977 C.3          1    LIG   0.0000
   2 C2           2.9676     2.2735     3.9812 C.ar         1    LIG   0.0000
   3 C3           2.1642     1.4715     3.1770 C.ar         1    LIG   0.0000
   4 C4           1.8776     1.8776     1.8776 C.ar         1    LIG   0.0000
   5 C5           1.0000     1.0000     1.0000 C.3          1    LIG   0.0000
   6 C6           0.4281     1.8312    -0.1368 C.3          1    LIG   0.0000
   7 C7          -0.1368     0.4281     1.8312 C.3          1    LIG   0.0000
   8 C8           1.8312    -0.1368     0.4281 C.2          1    LIG   0.0000
   9 O9           2.9083    -0.4596     0.9740 O.co2        1    LIG   0.0000
  10 O10          1.4502    -0.7293    -0.5558 O.co2        1    LIG  -1.0000
  11 C11          2.3826     3.0720     1.3736 C.ar         1    LIG   0.0000
  12 C12          3.1853     3.8692     2.1830 C.ar         1    LIG   0.0000
  13 C13          3.4755     3.4699     3.4838 C.ar         1    LIG   0.0000
  14 C14          4.3134     4.3266     4.2949 C.2          1    LIG   0.0000
  15 C15          5.5054     3.9584     4.8355 C.2          1    LIG   0.0000
  16 C16          5.9607     5.0935     5.5428 C.2          1    LIG   0.0000
  17 C17          5.0154     6.0603     5.3769 C.2          1    LIG   0.0000
  18 O18          4.0507     5.5716     4.6267 O.2          1    LIG   0.0000
  19 H            2.8160     0.9343     5.5649 H            1    LIG   0.0000
  20 H            4.2557     1.7030     5.5108 H            1    LIG   0.0000
  21 H            2.9299     2.4897     6.0491 H            1    LIG   0.0000
  22 H            1.7962     0.6111     3.5297 H            1    LIG   0.0000
  23 H           -0.1493     1.2539    -0.7142 H            1    LIG   0.0000
  24 H           -0.1188     2.5791     0.2394 H            1    LIG   0.0000
  25 H            1.1760     2.2075    -0.6837 H            1    LIG   0.0000
  26 H           -0.7142    -0.1493     1.2539 H            1    LIG   0.0000
  27 H            0.2394    -0.1188     2.5791 H            1    LIG   0.0000
  28 H           -0.6837     1.1760     2.2075 H            1    LIG   0.0000
  29 H            2.1705     3.3548     0.4382 H            1    LIG   0.0000
  30 H            3.5538     4.7292     1.8299 H            1    LIG   0.0000
  31 H            5.9624     3.0730     4.7506 H            1    LIG   0.0000
  32 H            6.8108     5.1719     6.0636 H            1    LIG   0.0000
  33 H            5.0488     6.9836     5.7597 H            1    LIG   0.0000
@<TRIPOS>BOND
   1        1        2 1
   2        2        3 ar
   3        3        4 ar
   4        4        5 1
   5        5        6 1
   6        5        7 1
   7        5        8 1
   8        8        9 ar
   9        8       10 ar
  10        4       11 ar
  11       11       12 ar
  12       12       13 ar
  13       13        2 ar
  14       13       14 1
  15       14       15 2
  16       15       16 1
  17       16       17 2
  18       17       18 1
  19       18       14 1
  20        1       19 1
  21        1       20 1
  22        1       21 1
  23        3       22 1
  24        6       23 1
  25        6       24 1
  26        6       25 1
  27        7       26 1
  28        7       27 1
  29        7       28 1
  30       11       29 1
  31       12       30 1
  32       15       31 1
  33       16       32 1
  34       17       33 1

@<TRIPOS>MOLECULE

  33   34
SMALL
USER_CHARGES
@<TRIPOS>ATOM
   1 C1           3.2680     1.8105     5.3977 C.3          1    LIG   0.0000
   2 C2           2.9676     2.2735     3.9812 C.ar         1    LIG   0.0000
   3 C3           2.1642     1.4715     3.1770 C.ar         1    LIG   0.0000
   4 C4           1.8776     1.8776     1.8776 C.ar         1    LIG   0.0000
   5 C5           1.0000     1.0000     1.0000 C.3          1    LIG   0.0000
   6 C6           0.4281     1.8312    -0.1368 C.3          1    LIG   0.0000
   7 C7          -0.1368     0.4281     1.8312 C.3          1    LIG   0.0000
   8 C8           1.8312    -0.1368     0.4281 C.2          1    LIG   0.0000
   9 O9           2.2641    -0.0670    -0.7425 O.co2        1    LIG   0.0000
  10 O10          2.0738    -1.1094     1.1059 O.co2        1    LIG  -1.0000
  11 C11          2.3826     3.0720     1.3736 C.ar         1    LIG   0.0000
  12 C12          3.1853     3.8692     2.1830 C.ar         1    LIG   0.0000
  13 C13          3.4755     3.4699     3.4838 C.ar         1    LIG   0.0000
  14 C14          4.3134     4.3266     4.2949 C.2          1    LIG   0.0000
  15 C15          3.9350     4.8917     5.4722 C.2          1    LIG   0.0000
  16 C16          5.0527     5.6408     5.9027 C.2          1    LIG   0.0000
  17 C17          6.0207     5.4727     4.9590 C.2          1    LIG   0.0000
  18 O18          5.5487     4.6826     4.0181 O.2          1    LIG   0.0000
  19 H            2.8160     0.9343     5.5649 H            1    LIG   0.0000
  20 H            4.2557     1.7030     5.5108 H            1    LIG   0.0000
  21 H            2.9299     2.4897     6.0491 H            1    LIG   0.0000
  22 H            1.7962     0.6111     3.5297 H            1    LIG   0.0000
  23 H           -0.1493     1.2539    -0.7142 H            1    LIG   0.0000
  24 H           -0.1188     2.5791     0.2394 H            1    LIG   0.0000
  25 H            1.1760     2.2075    -0.6837 H            1    LIG   0.0000
  26 H           -0.7142    -0.1493     1.2539 H            1    LIG   0.0000
  27 H            0.2394    -0.1188     2.5791 H            1    LIG   0.0000
  28 H           -0.6837     1.1760     2.2075 H            1    LIG   0.0000
  29 H            2.1705     3.3548     0.4382 H            1    LIG   0.0000
  30 H            3.5538     4.7292     1.8299 H            1    LIG   0.0000
  31 H            3.0534     4.7972     5.9347 H            1    LIG   0.0000
  32 H            5.1202     6.1877     6.7372 H            1    LIG   0.0000
  33 H            6.9338     5.8799     4.9780 H            1    LIG   0.0000
@<TRIPOS>BOND
   1        1        2 1
   2        2        3 ar
   3        3        4 ar
   4        4        5 1
   5        5        6 1
   6        5        7 1
   7        5        8 1
   8        8        9 ar
   9        8       10 ar
  10        4       11 ar
  11       11       12 ar
  12       12       13 ar
  13       13        2 ar
  14       13       14 1
  15       14       15 2
  16       15       16 1
  17       16       17 2
  18       17       18 1
  19       18       14 1
  20        1       19 1
  21        1       20 1
  22        1       21 1
  23        3       22 1
  24        6       23 1
  25        6       24 1
  26        6       25 1
  27        7       26 1
  28        7       27 1
  29        7       28 1
  30       11       29 1
  31       12       30 1
  32       15       31 1
  33       16       32 1
  34       17       33 1

@<TRIPOS>MOLECULE

  33   34
SMALL
USER_CHARGES
@<TRIPOS>ATOM
   1 C1           1.9892     2.9943     5.4927 C.3          1    LIG   0.0000
   2 C2           2.3587     2.8370     4.0266 C.ar         1    LIG   0.0000
   3 C3           1.5562     2.0344     3.2221 C.ar         1    LIG   0.0000
   4 C4           1.8776     1.8776     1.8776 C.ar         1    LIG   0.0000
   5 C5           1.0000     1.0000     1.0000 C.3          1    LIG   0.0000
   6 C6           0.4281     1.8312    -0.1368 C.3          1    LIG   0.0000
   7 C7          -0.1368     0.4281     1.8312 C.3          1    LIG   0.0000
   8 C8           1.8312    -0.1368     0.4281 C.2          1    LIG   0.0000
   9 O9           2.2641    -0.0670    -0.7425 O.co2        1    LIG   0.0000
  10 O10          2.0738    -1.1094     1.1059 O.co2        1    LIG  -1.0000
  11 C11          2.9880     2.5113     1.3289 C.ar         1    LIG   0.0000
  12 C12          3.7863     3.3124     2.1388 C.ar         1    LIG   0.0000
  13 C13          3.4705     3.4745     3.4842 C.ar         1    LIG   0.0000
  14 C14          4.3248     4.3162     4.2940 C.2          1    LIG   0.0000
  15 C15          5.4263     4.9698     3.8379 C.2          1    LIG   0.0000
  16 C16          5.9451     5.6542     4.9598 C.2          1    LIG   0.0000
  17 C17          5.1216     5.3665     6.0061 C.2          1    LIG   0.0000
  18 O18          4.1664     4.5706     5.5744 O.2          1    LIG   0.0000
  19 H            1.1651     2.4623     5.6877 H            1    LIG   0.0000
  20 H            2.7414     2.6648     6.0633 H            1    LIG   0.0000
  21 H            1.8178     3.9592     5.6916 H            1    LIG   0.0000
  22 H            0.7558     1.5745     3.6067 H            1    LIG   0.0000
  23 H           -0.1493     1.2539    -0.7142 H            1    LIG   0.0000
  24 H           -0.1188     2.5791     0.2394 H            1    LIG   0.0000
  25 H            1.1760     2.2075    -0.6837 H            1    LIG   0.0000
  26 H           -0.7142    -0.1493     1.2539 H            1    LIG   0.0000
  27 H            0.2394    -0.1188     2.5791 H            1    LIG   0.0000
  28 H           -0.6837     1.1760     2.2075 H            1    LIG   0.0000
  29 H            3.2101     2.3921     0.3612 H            1    LIG   0.0000
  30 H            4.5870     3.7717     1.7542 H            1    LIG   0.0000
  31 H            5.7914     4.9668     2.9070 H            1    LIG   0.0000
  32 H            6.7580     6.2361     4.9815 H            1    LIG   0.0000
  33 H            5.2252     5.7025     6.9422 H            1    LIG   0.0000
@<TRIPOS>BOND
   1        1        2 1
   2        2        3 ar
   3        3        4 ar
   4        4        5 1
   5        5        6 1
   6        5        7 1
   7        5        8 1
   8        8        9 ar
   9        8       10 ar
  10        4       11 ar
  11       11       12 ar
  12       12       13 ar
  13       13        2 ar
  14       13       14 1
  15       14       15 2
  16       15       16 1
  17       16       17 2
  18       17       18 1
  19       18       14 1
  20        1       19 1
  21        1       20 1
  22        1       21 1
  23        3       22 1
  24        6       23 1
  25        6       24 1
  26        6       25 1
  27        7       26 1
  28        7       27 1
  29        7       28 1
  30       11       29 1
  31       12       30 1
  32       15       31 1
  33       16       32 1
  34       17       33 1

@<TRIPOS>MOLECULE

  33   34
SMALL
USER_CHARGES
@<TRIPOS>ATOM
   1 C1           1.9892     2.9943     5.4927 C.3          1    LIG   0.0000
   2 C2           2.3587     2.8370     4.0266 C.ar         1    LIG   0.0000
   3 C3           1.5562     2.0344     3.2221 C.ar         1    LIG   0.0000
   4 C4           1.8776     1.8776     1.8776 C.ar         1    LIG   0.0000
   5 C5           1.0000     1.0000     1.0000 C.3          1    LIG   0.0000
   6 C6           0.4281     1.8312    -0.1368 C.3          1    LIG   0.0000
   7 C7          -0.1368     0.4281     1.8312 C.3          1    LIG   0.0000
   8 C8           1.8312    -0.1368     0.4281 C.2          1    LIG   0.0000
   9 O9           1.7789    -1.2723     0.9480 O.co2        1    LIG   0.0000
  10 O10          2.5435     0.0574    -0.5306 O.co2        1    LIG  -1.0000
  11 C11          2.9880     2.5113     1.3289 C.ar         1    LIG   0.0000
  12 C12          3.7863     3.3124     2.1388 C.ar         1    LIG   0.0000
  13 C13          3.4705     3.4745     3.4842 C.ar         1    LIG   0.0000
  14 C14          4.3248     4.3162     4.2940 C.2          1    LIG   0.0000
  15 C15          3.9140     5.4328     4.9520 C.2          1    LIG   0.0000
  16 C16          5.0677     5.9308     5.5978 C.2          1    LIG   0.0000
  17 C17          6.0858     5.0814     5.2853 C.2          1    LIG   0.0000
  18 O18          5.6084     4.1303     4.5107 O.2          1    LIG   0.0000
  19 H            1.1651     2.4623     5.6877 H            1    LIG   0.0000
  20 H            2.7414     2.6648     6.0633 H            1    LIG   0.0000
  21 H            1.8178     3.9592     5.6916 H            1    LIG   0.0000
  22 H            0.7558     1.5745     3.6067 H            1    LIG   0.0000
  23 H           -0.1493     1.2539    -0.7142 H            1    LIG   0.0000
  24 H           -0.1188     2.5791     0.2394 H            1    LIG   0.0000
  25 H            1.1760     2.2075    -0.6837 H            1    LIG   0.0000
  26 H           -0.7142    -0.1493     1.2539 H            1    LIG   0.0000
  27 H            0.2394    -0.1188     2.5791 H            1    LIG   0.0000
  28 H           -0.6837     1.1760     2.2075 H            1    LIG   0.0000
  29 H            3.2101     2.3921     0.3612 H            1    LIG   0.0000
  30 H            4.5870     3.7717     1.7542 H            1    LIG   0.0000
  31 H            2.9920     5.8192     4.9741 H            1    LIG   0.0000
  32 H            5.1256     6.7474     6.1721 H            1    LIG   0.0000
  33 H            7.0339     5.1659     5.5920 H            1    LIG   0.0000
@<TRIPOS>BOND
   1        1        2 1
   2        2        3 ar
   3        3        4 ar
   4        4        5 1
   5        5        6 1
   6        5        7 1
   7        5        8 1
   8        8        9 ar
   9        8       10 ar
  10        4       11 ar
  11       11       12 ar
  12       12       13 ar
  13       13        2 ar
  14       13       14 1
  15       14       15 2
  16       15       16 1
  17       16       17 2
  18       17       18 1
  19       18       14 1
  20        1       19 1
  21        1       20 1
  22        1       21 1
  23        3       22 1
  24        6       23 1
  25        6       24 1
  26        6       25 1
  27        7       26 1
  28        7       27 1
  29        7       28 1
  30       11       29 1
  31       12       30 1
  32       15       31 1
  33       16       32 1
  34       17       33 1

@<TRIPOS>MOLECULE

  33   34
SMALL
USER_CHARGES
@<TRIPOS>ATOM
   1 C1           1.4136     4.4110     4.6517 C.3          1    LIG   0.0000
   2 C2           2.0846     3.5114     3.6262 C.ar         1    LIG   0.0000
   3 C3           1.2826     2.7080     2.8221 C.ar         1    LIG   0.0000
   4 C4           1.8776     1.8776     1.8776 C.ar         1    LIG   0.0000
   5 C5           1.0000     1.0000     1.0000 C.3          1    LIG   0.0000
   6 C6           0.4281     1.8312    -0.1368 C.3          1    LIG   0.0000
   7 C7          -0.1368     0.4281     1.8312 C.3          1    LIG   0.0000
   8 C8           1.8312    -0.1368     0.4281 C.2          1    LIG   0.0000
   9 O9           1.7789    -1.2723     0.9480 O.co2        1    LIG   0.0000
  10 O10          2.5435     0.0574    -0.5306 O.co2        1    LIG  -1.0000
  11 C11          3.2603     1.8406     1.7274 C.ar         1    LIG   0.0000
  12 C12          4.0564     2.6464     2.5347 C.ar         1    LIG   0.0000
  13 C13          3.4683     3.4800     3.4809 C.ar         1    LIG   0.0000
  14 C14          4.3300     4.3037     4.3013 C.2          1    LIG   0.0000
  15 C15          5.2913     3.8279     5.1367 C.2          1    LIG   0.0000
  16 C16          5.8697     4.9723     5.7299 C.2          1    LIG   0.0000
  17 C17          5.2193     6.0507     5.2104 C.2          1    LIG   0.0000
  18 O18          4.3117     5.6172     4.3615 O.2          1    LIG   0.0000
  19 H            0.4220     4.2911     4.6021 H            1    LIG   0.0000
  20 H            1.7332     4.1686     5.5677 H            1    LIG   0.0000
  21 H            1.6440     5.3649     4.4597 H            1    LIG   0.0000
  22 H            0.2878     2.7271     2.9220 H            1    LIG   0.0000
  23 H           -0.1493     1.2539    -0.7142 H            1    LIG   0.0000
  24 H           -0.1188     2.5791     0.2394 H            1    LIG   0.0000
  25 H            1.1760     2.2075    -0.6837 H            1    LIG   0.0000
  26 H           -0.7142    -0.1493     1.2539 H            1    LIG   0.0000
  27 H            0.2394    -0.1188     2.5791 H            1    LIG   0.0000
  28 H           -0.6837     1.1760     2.2075 H            1    LIG   0.0000
  29 H            3.6778     1.2402     1.0454 H            1    LIG   0.0000
  30 H            5.0512     2.6267     2.4351 H            1    LIG   0.0000
  31 H            5.5367     2.8719     5.2971 H            1    LIG   0.0000
  32 H            6.6116     4.9877     6.4003 H            1    LIG   0.0000
  33 H            5.4006     7.0080     5.4355 H            1    LIG   0.0000
@<TRIPOS>BOND
   1        1        2 1
   2        2        3 ar
   3        3        4 ar
   4        4        5 1
   5        5        6 1
   6        5        7 1
   7        5        8 1
   8        8        9 ar
   9        8       10 ar
  10        4       11 ar
  11       11       12 ar
  12       12       13 ar
  13       13        2 ar
  14       13       14 1
  15       14       15 2
  16       15       16 1
  17       16       17 2
  18       17       18 1
  19       18       14 1
  20        1       19 1
  21        1       20 1
  22        1       21 1
  23        3       22 1
  24        6       23 1
  25        6       24 1
  26        6       25 1
  27        7       26 1
  28        7       27 1
  29        7       28 1
  30       11       29 1
  31       12       30 1
  32       15       31 1
  33       16       32 1
  34       17       33 1

@<TRIPOS>MOLECULE

  33   34
SMALL
USER_CHARGES
@<TRIPOS>ATOM
   1 C1           1.4136     4.4110     4.6517 C.3          1    LIG   0.0000
   2 C2           2.0846     3.5114     3.6262 C.ar         1    LIG   0.0000
   3 C3           1.2826     2.7080     2.8221 C.ar         1    LIG   0.0000
   4 C4           1.8776     1.8776     1.8776 C.ar         1    LIG   0.0000
   5 C5           1.0000     1.0000     1.0000 C.3          1    LIG   0.0000
   6 C6           0.4281     1.8312    -0.1368 C.3          1    LIG   0.0000
   7 C7          -0.1368     0.4281     1.8312 C.3          1    LIG   0.0000
   8 C8           1.8312    -0.1368     0.4281 C.2          1    LIG   0.0000
   9 O9           2.2641    -0.0670    -0.7425 O.co2        1    LIG   0.0000
  10 O10          2.0738    -1.1094     1.1059 O.co2        1    LIG  -1.0000
  11 C11          3.2603     1.8406     1.7274 C.ar         1    LIG   0.0000
  12 C12          4.0564     2.6464     2.5347 C.ar         1    LIG   0.0000
  13 C13          3.4683     3.4800     3.4809 C.ar         1    LIG   0.0000
  14 C14          4.3300     4.3037     4.3013 C.2          1    LIG   0.0000
  15 C15          4.2919     5.6621     4.3449 C.2          1    LIG   0.0000
  16 C16          5.3000     6.0342     5.2621 C.2          1    LIG   0.0000
  17 C17          5.8694     4.8785     5.7046 C.2          1    LIG   0.0000
  18 O18          5.2664     3.8679     5.1152 O.2          1    LIG   0.0000
  19 H            0.4220     4.2911     4.6021 H            1    LIG   0.0000
  20 H            1.7332     4.1686     5.5677 H            1    LIG   0.0000
  21 H            1.6440     5.3649     4.4597 H            1    LIG   0.0000
  22 H            0.2878     2.7271     2.9220 H            1    LIG   0.0000
  23 H           -0.1493     1.2539    -0.7142 H            1    LIG   0.0000
  24 H           -0.1188     2.5791     0.2394 H            1    LIG   0.0000
  25 H            1.1760     2.2075    -0.6837 H            1    LIG   0.0000
  26 H           -0.7142    -0.1493     1.2539 H            1    LIG   0.0000
  27 H            0.2394    -0.1188     2.5791 H            1    LIG   0.0000
  28 H           -0.6837     1.1760     2.2075 H            1    LIG   0.0000
  29 H            3.6778     1.2402     1.0454 H            1    LIG   0.0000
  30 H            5.0512     2.6267     2.4351 H            1    LIG   0.0000
  31 H            3.6806     6.2684     3.8362 H            1    LIG   0.0000
  32 H            5.5472     6.9644     5.5335 H            1    LIG   0.0000
  33 H            6.6176     4.8097     6.3644 H            1    LIG   0.0000
@<TRIPOS>BOND
   1        1        2 1
   2        2        3 ar
   3        3        4 ar
   4        4        5 1
   5        5        6 1
   6        5        7 1
   7        5        8 1
   8        8        9 ar
   9        8       10 ar
  10        4       11 ar
  11       11       12 ar
  12       12       13 ar
  13       13        2 ar
  14       13       14 1
  15       14       15 2
  16       15       16 1
  17       16       17 2
  18       17       18 1
  19       18       14 1
  20        1       19 1
  21        1       20 1
  22        1       21 1
  23        3       22 1
  24        6       23 1
  25        6       24 1
  26        6       25 1
  27        7       26 1
  28        7       27 1
  29        7       28 1
  30       11       29 1
  31       12       30 1
  32       15       31 1
  33       16       32 1
  34       17       33 1

@<TRIPOS>MOLECULE

  33   34
SMALL
USER_CHARGES
@<TRIPOS>ATOM
   1 C1           5.3977     3.2680     1.8105 C.3          1    LIG   0.0000
   2 C2           3.9812     2.9676     2.2735 C.ar         1    LIG   0.0000
   3 C3           3.1770     2.1642     1.4715 C.ar         1    LIG   0.0000
   4 C4           1.8776     1.8776     1.8776 C.ar         1    LIG   0.0000
   5 C5           1.0000     1.0000     1.0000 C.3          1    LIG   0.0000
   6 C6           0.4281     1.8312    -0.1368 C.3          1    LIG   0.0000
   7 C7          -0.1368     0.4281     1.8312 C.3          1    LIG   0.0000
   8 C8           1.8312    -0.1368     0.4281 C.2          1    LIG   0.0000
   9 O9           1.7789    -1.2723     0.9480 O.co2        1    LIG   0.0000
  10 O10          2.5435     0.0574    -0.5306 O.co2        1    LIG  -1.0000
  11 C11          1.3736     2.3826     3.0720 C.ar         1    LIG   0.0000
  12 C12          2.1830     3.1853     3.8692 C.ar         1    LIG   0.0000
  13 C13          3.4838     3.4755     3.4699 C.ar         1    LIG   0.0000
  14 C14          4.2949     4.3134     4.3266 C.2          1    LIG   0.0000
  15 C15          4.6234     4.0194     5.6127 C.2          1    LIG   0.0000
  16 C16          5.4094     5.1068     6.0549 C.2          1    LIG   0.0000
  17 C17          5.4991     5.9734     5.0077 C.2          1    LIG   0.0000
  18 O18          4.8274     5.4691     3.9944 O.2          1    LIG   0.0000
  19 H            5.5649     2.8160     0.9343 H            1    LIG   0.0000
  20 H            5.5108     4.2557     1.7030 H            1    LIG   0.0000
  21 H            6.0491     2.9299     2.4897 H            1    LIG   0.0000
  22 H            3.5297     1.7962     0.6111 H            1    LIG   0.0000
  23 H           -0.1493     1.2539    -0.7142 H            1    LIG   0.0000
  24 H           -0.1188     2.5791     0.2394 H            1    LIG   0.0000
  25 H            1.1760     2.2075    -0.6837 H            1    LIG   0.0000
  26 H           -0.7142    -0.1493     1.2539 H            1    LIG   0.0000
  27 H            0.2394    -0.1188     2.5791 H            1    LIG   0.0000
  28 H           -0.6837     1.1760     2.2075 H            1    LIG   0.0000
  29 H            0.4382     2.1705     3.3548 H            1    LIG   0.0000
  30 H            1.8299     3.5538     4.7292 H            1    LIG   0.0000
  31 H            4.3639     3.2066     6.1344 H            1    LIG   0.0000
  32 H            5.8197     5.2186     6.9600 H            1    LIG   0.0000
  33 H            5.9913     6.8439     5.0086 H            1    LIG   0.0000
@<TRIPOS>BOND
   1        1        2 1
   2        2        3 ar
   3        3        4 ar
   4        4        5 1
   5        5        6 1
   6        5        7 1
   7        5        8 1
   8        8        9 ar
   9        8       10 ar
  10        4       11 ar
  11       11       12 ar
  12       12       13 ar
  13       13        2 ar
  14       13       14 1
  15       14       15 2
  16       15       16 1
  17       16       17 2
  18       17       18 1
  19       18       14 1
  20        1       19 1
  21        1       20 1
  22        1       21 1
  23        3       22 1
  24        6       23 1
  25        6       24 1
  26        6       25 1
  27        7       26 1
  28        7       27 1
  29        7       28 1
  30       11       29 1
  31       12       30 1
  32       15       31 1
  33       16       32 1
  34       17       33 1

@<TRIPOS>MOLECULE

  33   34
SMALL
USER_CHARGES
@<TRIPOS>ATOM
   1 C1           5.3977     3.2680     1.8105 C.3          1    LIG   0.0000
   2 C2           3.9812     2.9676     2.2735 C.ar         1    LIG   0.0000
   3 C3           3.1770     2.1642     1.4715 C.ar         1    LIG   0.0000
   4 C4           1.8776     1.8776     1.8776 C.ar         1    LIG   0.0000
   5 C5           1.0000     1.0000     1.0000 C.3          1    LIG   0.0000
   6 C6           0.4281     1.8312    -0.1368 C.3          1    LIG   0.0000
   7 C7          -0.1368     0.4281     1.8312 C.3          1    LIG   0.0000
   8 C8           1.8312    -0.1368     0.4281 C.2          1    LIG   0.0000
   9 O9           2.2641    -0.0670    -0.7425 O.co2        1    LIG   0.0000
  10 O10          2.0738    -1.1094     1.1059 O.co2        1    LIG  -1.0000
  11 C11          1.3736     2.3826     3.0720 C.ar         1    LIG   0.0000
  12 C12          2.1830     3.1853     3.8692 C.ar         1    LIG   0.0000
  13 C13          3.4838     3.4755     3.4699 C.ar         1    LIG   0.0000
  14 C14          4.2949     4.3134     4.3266 C.2          1    LIG   0.0000
  15 C15          3.9867     5.5898     4.6795 C.2          1    LIG   0.0000
  16 C16          5.0495     6.0147     5.5077 C.2          1    LIG   0.0000
  17 C17          5.9170     4.9681     5.5953 C.2          1    LIG   0.0000
  18 O18          5.4360     3.9711     4.8834 O.2          1    LIG   0.0000
  19 H            5.5649     2.8160     0.9343 H            1    LIG   0.0000
  20 H            5.5108     4.2557     1.7030 H            1    LIG   0.0000
  21 H            6.0491     2.9299     2.4897 H            1    LIG   0.0000
  22 H            3.5297     1.7962     0.6111 H            1    LIG   0.0000
  23 H           -0.1493     1.2539    -0.7142 H            1    LIG   0.0000
  24 H           -0.1188     2.5791     0.2394 H            1    LIG   0.0000
  25 H            1.1760     2.2075    -0.6837 H            1    LIG   0.0000
  26 H           -0.7142    -0.1493     1.2539 H            1    LIG   0.0000
  27 H            0.2394    -0.1188     2.5791 H            1    LIG   0.0000
  28 H           -0.6837     1.1760     2.2075 H            1    LIG   0.0000
  29 H            0.4382     2.1705     3.3548 H            1    LIG   0.0000
  30 H            1.8299     3.5538     4.7292 H            1    LIG   0.0000
  31 H            3.1799     6.1156     4.4102 H            1    LIG   0.0000
  32 H            5.1461     6.9092     5.9442 H            1    LIG   0.0000
  33 H            6.7730     4.9588     6.1122 H            1    LIG   0.0000
@<TRIPOS>BOND
   1        1        2 1
   2        2        3 ar
   3        3        4 ar
   4        4        5 1
   5        5        6 1
   6        5        7 1
   7        5        8 1
   8        8        9 ar
   9        8       10 ar
  10        4       11 ar
  11       11       12 ar
  12       12       13 ar
  13       13        2 ar
  14       13       14 1
  15       14       15 2
  16       15       16 1
  17       16       17 2
  18       17       18 1
  19       18       14 1
  20        1       19 1
  21        1       20 1
  22        1       21 1
  23        3       22 1
  24        6       23 1
  25        6       24 1
  26        6       25 1
  27        7       26 1
  28        7       27 1
  29        7       28 1
  30       11       29 1
  31       12       30 1
  32       15       31 1
  33       16       32 1
  34       17       33 1

