@<TRIPOS>MOLECULE
*****
 33 34 0 0 0
SMALL
USER_CHARGES

@<TRIPOS>ATOM
      1 C1          1.9892    2.9943    5.4927 C.3     1  LIG1        0.0000
      2 C2          2.3587    2.8370    4.0266 C.3     1  LIG1        0.0000
      3 C3          1.5562    2.0344    3.2221 C.3     1  LIG1        0.0000
      4 C4          1.8776    1.8776    1.8776 C.3     1  LIG1        0.0000
      5 C5          1.0000    1.0000    1.0000 C.3     1  LIG1        0.0000
      6 C6          0.4281    1.8312   -0.1368 C.3     1  LIG1        0.0000
      7 C7         -0.1368    0.4281    1.8312 C.3     1  LIG1        0.0000
      8 C8          1.8312   -0.1368    0.4281 C.3     1  LIG1        0.0000
      9 O9          2.2641   -0.0670   -0.7425 O.2     1  LIG1        0.0000
     10 O10         2.0738   -1.1094    1.1059 O.2     1  LIG1       -1.0000
     11 C11         2.9880    2.5113    1.3289 C.3     1  LIG1        0.0000
     12 C12         3.7863    3.3124    2.1388 C.3     1  LIG1        0.0000
     13 C13         3.4705    3.4745    3.4842 C.3     1  LIG1        0.0000
     14 C14         4.3248    4.3162    4.2940 C.2     1  LIG1        0.0000
     15 C15         5.4263    4.9698    3.8379 C.2     1  LIG1        0.0000
     16 C16         5.9451    5.6542    4.9598 C.2     1  LIG1        0.0000
     17 C17         5.1216    5.3665    6.0061 C.2     1  LIG1        0.0000
     18 O18         4.1664    4.5706    5.5744 O.2     1  LIG1        0.0000
     19 H           1.1651    2.4623    5.6877 H       1  LIG1        0.0000
     20 H           2.7414    2.6648    6.0633 H       1  LIG1        0.0000
     21 H           1.8178    3.9592    5.6916 H       1  LIG1        0.0000
     22 H           0.7558    1.5745    3.6067 H       1  LIG1        0.0000
     23 H          -0.1493    1.2539   -0.7142 H       1  LIG1        0.0000
     24 H          -0.1188    2.5791    0.2394 H       1  LIG1        0.0000
     25 H           1.1760    2.2075   -0.6837 H       1  LIG1        0.0000
     26 H          -0.7142   -0.1493    1.2539 H       1  LIG1        0.0000
     27 H           0.2394   -0.1188    2.5791 H       1  LIG1        0.0000
     28 H          -0.6837    1.1760    2.2075 H       1  LIG1        0.0000
     29 H           3.2101    2.3921    0.3612 H       1  LIG1        0.0000
     30 H           4.5870    3.7717    1.7542 H       1  LIG1        0.0000
     31 H           5.7914    4.9668    2.9070 H       1  LIG1        0.0000
     32 H           6.7580    6.2361    4.9815 H       1  LIG1        0.0000
     33 H           5.2252    5.7025    6.9422 H       1  LIG1        0.0000
@<TRIPOS>UNITY_ATOM_ATTR
9 1
charge -1
@<TRIPOS>BOND
     1     1     2    1
     2     2     3   ar
     3     3     4   ar
     4     4     5    1
     5     5     6    1
     6     5     7    1
     7     5     8    1
     8     8     9    1
     9     8    10    2
    10     4    11   ar
    11    11    12   ar
    12    12    13   ar
    13    13     2   ar
    14    13    14    1
    15    14    15    2
    16    15    16    1
    17    16    17    2
    18    17    18    1
    19    18    14    1
    20     1    19    1
    21     1    20    1
    22     1    21    1
    23     3    22    1
    24     6    23    1
    25     6    24    1
    26     6    25    1
    27     7    26    1
    28     7    27    1
    29     7    28    1
    30    11    29    1
    31    12    30    1
    32    15    31    1
    33    16    32    1
    34    17    33    1
