@<TRIPOS>MOLECULE
*****
 33 34 0 0 0
SMALL
USER_CHARGES

@<TRIPOS>ATOM
      1 C1          5.3977    3.2680    1.8105 C.3     1  LIG1        0.0000
      2 C2          3.9812    2.9676    2.2735 C.3     1  LIG1        0.0000
      3 C3          3.1770    2.1642    1.4715 C.3     1  LIG1        0.0000
      4 C4          1.8776    1.8776    1.8776 C.3     1  LIG1        0.0000
      5 C5          1.0000    1.0000    1.0000 C.3     1  LIG1        0.0000
      6 C6          0.4281    1.8312   -0.1368 C.3     1  LIG1        0.0000
      7 C7         -0.1368    0.4281    1.8312 C.3     1  LIG1        0.0000
      8 C8          1.8312   -0.1368    0.4281 C.3     1  LIG1        0.0000
      9 O9          2.2641   -0.0670   -0.7425 O.2     1  LIG1        0.0000
     10 O10         2.0738   -1.1094    1.1059 O.2     1  LIG1       -1.0000
     11 C11         1.3736    2.3826    3.0720 C.3     1  LIG1        0.0000
     12 C12         2.1830    3.1853    3.8692 C.3     1  LIG1        0.0000
     13 C13         3.4838    3.4755    3.4699 C.3     1  LIG1        0.0000
     14 C14         4.2949    4.3134    4.3266 C.2     1  LIG1        0.0000
     15 C15         3.9867    5.5898    4.6795 C.2     1  LIG1        0.0000
     16 C16         5.0495    6.0147    5.5077 C.2     1  LIG1        0.0000
     17 C17         5.9170    4.9681    5.5953 C.2     1  LIG1        0.0000
     18 O18         5.4360    3.9711    4.8834 O.2     1  LIG1        0.0000
     19 H           5.5649    2.8160    0.9343 H       1  LIG1        0.0000
     20 H           5.5108    4.2557    1.7030 H       1  LIG1        0.0000
     21 H           6.0491    2.9299    2.4897 H       1  LIG1        0.0000
     22 H           3.5297    1.7962    0.6111 H       1  LIG1        0.0000
     23 H          -0.1493    1.2539   -0.7142 H       1  LIG1        0.0000
     24 H          -0.1188    2.5791    0.2394 H       1  LIG1        0.0000
     25 H           1.1760    2.2075   -0.6837 H       1  LIG1        0.0000
     26 H          -0.7142   -0.1493    1.2539 H       1  LIG1        0.0000
     27 H           0.2394   -0.1188    2.5791 H       1  LIG1        0.0000
     28 H          -0.6837    1.1760    2.2075 H       1  LIG1        0.0000
     29 H           0.4382    2.1705    3.3548 H       1  LIG1        0.0000
     30 H           1.8299    3.5538    4.7292 H       1  LIG1        0.0000
     31 H           3.1799    6.1156    4.4102 H       1  LIG1        0.0000
     32 H           5.1461    6.9092    5.9442 H       1  LIG1        0.0000
     33 H           6.7730    4.9588    6.1122 H       1  LIG1        0.0000
@<TRIPOS>UNITY_ATOM_ATTR
9 1
charge -1
@<TRIPOS>BOND
     1     1     2    1
     2     2     3   ar
     3     3     4   ar
     4     4     5    1
     5     5     6    1
     6     5     7    1
     7     5     8    1
     8     8     9    1
     9     8    10    2
    10     4    11   ar
    11    11    12   ar
    12    12    13   ar
    13    13     2   ar
    14    13    14    1
    15    14    15    2
    16    15    16    1
    17    16    17    2
    18    17    18    1
    19    18    14    1
    20     1    19    1
    21     1    20    1
    22     1    21    1
    23     3    22    1
    24     6    23    1
    25     6    24    1
    26     6    25    1
    27     7    26    1
    28     7    27    1
    29     7    28    1
    30    11    29    1
    31    12    30    1
    32    15    31    1
    33    16    32    1
    34    17    33    1
