@<TRIPOS>MOLECULE
*****
 33 34 0 0 0
SMALL
USER_CHARGES

@<TRIPOS>ATOM
      1 C1          4.6517    1.4136    4.4110 C.3     1  LIG1        0.0000
      2 C2          3.6262    2.0846    3.5114 C.3     1  LIG1        0.0000
      3 C3          2.8221    1.2826    2.7080 C.3     1  LIG1        0.0000
      4 C4          1.8776    1.8776    1.8776 C.3     1  LIG1        0.0000
      5 C5          1.0000    1.0000    1.0000 C.3     1  LIG1        0.0000
      6 C6          0.4281    1.8312   -0.1368 C.3     1  LIG1        0.0000
      7 C7         -0.1368    0.4281    1.8312 C.3     1  LIG1        0.0000
      8 C8          1.8312   -0.1368    0.4281 C.3     1  LIG1        0.0000
      9 O9          2.2641   -0.0670   -0.7425 O.2     1  LIG1        0.0000
     10 O10         2.0738   -1.1094    1.1059 O.2     1  LIG1       -1.0000
     11 C11         1.7274    3.2603    1.8406 C.3     1  LIG1        0.0000
     12 C12         2.5347    4.0564    2.6464 C.3     1  LIG1        0.0000
     13 C13         3.4809    3.4683    3.4800 C.3     1  LIG1        0.0000
     14 C14         4.3013    4.3300    4.3037 C.2     1  LIG1        0.0000
     15 C15         4.2195    5.6869    4.3277 C.2     1  LIG1        0.0000
     16 C16         5.1987    6.1032    5.2570 C.2     1  LIG1        0.0000
     17 C17         5.7964    4.9723    5.7255 C.2     1  LIG1        0.0000
     18 O18         5.2363    3.9352    5.1399 O.2     1  LIG1        0.0000
     19 H           4.6021    0.4220    4.2911 H       1  LIG1        0.0000
     20 H           5.5677    1.7332    4.1686 H       1  LIG1        0.0000
     21 H           4.4597    1.6440    5.3649 H       1  LIG1        0.0000
     22 H           2.9220    0.2878    2.7271 H       1  LIG1        0.0000
     23 H          -0.1493    1.2539   -0.7142 H       1  LIG1        0.0000
     24 H          -0.1188    2.5791    0.2394 H       1  LIG1        0.0000
     25 H           1.1760    2.2075   -0.6837 H       1  LIG1        0.0000
     26 H          -0.7142   -0.1493    1.2539 H       1  LIG1        0.0000
     27 H           0.2394   -0.1188    2.5791 H       1  LIG1        0.0000
     28 H          -0.6837    1.1760    2.2075 H       1  LIG1        0.0000
     29 H           1.0454    3.6778    1.2402 H       1  LIG1        0.0000
     30 H           2.4351    5.0512    2.6267 H       1  LIG1        0.0000
     31 H           3.5986    6.2666    3.8000 H       1  LIG1        0.0000
     32 H           5.4115    7.0444    5.5197 H       1  LIG1        0.0000
     33 H           6.5345    4.9362    6.3992 H       1  LIG1        0.0000
@<TRIPOS>UNITY_ATOM_ATTR
9 1
charge -1
@<TRIPOS>BOND
     1     1     2    1
     2     2     3   ar
     3     3     4   ar
     4     4     5    1
     5     5     6    1
     6     5     7    1
     7     5     8    1
     8     8     9    1
     9     8    10    2
    10     4    11   ar
    11    11    12   ar
    12    12    13   ar
    13    13     2   ar
    14    13    14    1
    15    14    15    2
    16    15    16    1
    17    16    17    2
    18    17    18    1
    19    18    14    1
    20     1    19    1
    21     1    20    1
    22     1    21    1
    23     3    22    1
    24     6    23    1
    25     6    24    1
    26     6    25    1
    27     7    26    1
    28     7    27    1
    29     7    28    1
    30    11    29    1
    31    12    30    1
    32    15    31    1
    33    16    32    1
    34    17    33    1
