@<TRIPOS>MOLECULE
*****
 33 34 0 0 0
SMALL
USER_CHARGES

@<TRIPOS>ATOM
      1 C1          1.4136    4.4110    4.6517 C.3     1  LIG1        0.0000
      2 C2          2.0846    3.5114    3.6262 C.3     1  LIG1        0.0000
      3 C3          1.2826    2.7080    2.8221 C.3     1  LIG1        0.0000
      4 C4          1.8776    1.8776    1.8776 C.3     1  LIG1        0.0000
      5 C5          1.0000    1.0000    1.0000 C.3     1  LIG1        0.0000
      6 C6          0.4281    1.8312   -0.1368 C.3     1  LIG1        0.0000
      7 C7         -0.1368    0.4281    1.8312 C.3     1  LIG1        0.0000
      8 C8          1.8312   -0.1368    0.4281 C.3     1  LIG1        0.0000
      9 O9          2.2641   -0.0670   -0.7425 O.2     1  LIG1        0.0000
     10 O10         2.0738   -1.1094    1.1059 O.2     1  LIG1       -1.0000
     11 C11         3.2603    1.8406    1.7274 C.3     1  LIG1        0.0000
     12 C12         4.0564    2.6464    2.5347 C.3     1  LIG1        0.0000
     13 C13         3.4683    3.4800    3.4809 C.3     1  LIG1        0.0000
     14 C14         4.3300    4.3037    4.3013 C.2     1  LIG1        0.0000
     15 C15         4.2919    5.6621    4.3449 C.2     1  LIG1        0.0000
     16 C16         5.3000    6.0342    5.2621 C.2     1  LIG1        0.0000
     17 C17         5.8694    4.8785    5.7046 C.2     1  LIG1        0.0000
     18 O18         5.2664    3.8679    5.1152 O.2     1  LIG1        0.0000
     19 H           0.4220    4.2911    4.6021 H       1  LIG1        0.0000
     20 H           1.7332    4.1686    5.5677 H       1  LIG1        0.0000
     21 H           1.6440    5.3649    4.4597 H       1  LIG1        0.0000
     22 H           0.2878    2.7271    2.9220 H       1  LIG1        0.0000
     23 H          -0.1493    1.2539   -0.7142 H       1  LIG1        0.0000
     24 H          -0.1188    2.5791    0.2394 H       1  LIG1        0.0000
     25 H           1.1760    2.2075   -0.6837 H       1  LIG1        0.0000
     26 H          -0.7142   -0.1493    1.2539 H       1  LIG1        0.0000
     27 H           0.2394   -0.1188    2.5791 H       1  LIG1        0.0000
     28 H          -0.6837    1.1760    2.2075 H       1  LIG1        0.0000
     29 H           3.6778    1.2402    1.0454 H       1  LIG1        0.0000
     30 H           5.0512    2.6267    2.4351 H       1  LIG1        0.0000
     31 H           3.6806    6.2684    3.8362 H       1  LIG1        0.0000
     32 H           5.5472    6.9644    5.5335 H       1  LIG1        0.0000
     33 H           6.6176    4.8097    6.3644 H       1  LIG1        0.0000
@<TRIPOS>UNITY_ATOM_ATTR
9 1
charge -1
@<TRIPOS>BOND
     1     1     2    1
     2     2     3   ar
     3     3     4   ar
     4     4     5    1
     5     5     6    1
     6     5     7    1
     7     5     8    1
     8     8     9    1
     9     8    10    2
    10     4    11   ar
    11    11    12   ar
    12    12    13   ar
    13    13     2   ar
    14    13    14    1
    15    14    15    2
    16    15    16    1
    17    16    17    2
    18    17    18    1
    19    18    14    1
    20     1    19    1
    21     1    20    1
    22     1    21    1
    23     3    22    1
    24     6    23    1
    25     6    24    1
    26     6    25    1
    27     7    26    1
    28     7    27    1
    29     7    28    1
    30    11    29    1
    31    12    30    1
    32    15    31    1
    33    16    32    1
    34    17    33    1
