@<TRIPOS>MOLECULE

  36   37
SMALL
USER_CHARGES
@<TRIPOS>ATOM
   1 C1          -0.6579    -2.3846     1.6546 C.3          1    LIG   0.0000
   2 C2          -0.2677    -1.1311     0.8885 C.3          1    LIG   0.0000
   3 C3           0.6098    -0.2535     1.7661 C.3          1    LIG   0.0000
   4 C4          -0.1562     0.1366     3.0196 C.3          1    LIG   0.0000
   5 C5           1.0000     1.0000     1.0000 C.3          1    LIG   0.0000
   6 C6           1.8779     1.8779     1.8779 C.2          1    LIG   0.0000
   7 C7           3.2366     1.7411     1.8790 C.2          1    LIG   0.0000
   8 C8           4.0706     0.7645     1.0651 C.3          1    LIG   0.0000
   9 S9           3.8455     2.8885     2.9848 S.3          1    LIG   0.0000
  10 C10          2.3479     3.5370     3.4506 C.2          1    LIG   0.0000
  11 N11          2.2446     4.5363     4.3715 N.2          1    LIG   0.0000
  12 C12          1.0212     4.9390     4.6345 C.2          1    LIG   0.0000
  13 S13          0.8663     6.2125     5.8061 S.3          1    LIG   0.0000
  14 C14         -0.9245     6.4640     5.8815 C.3          1    LIG   0.0000
  15 N15         -0.0638     4.3771     4.0153 N.pl3        1    LIG   0.0000
  16 C16          0.1004     3.3731     3.0960 C.2          1    LIG   0.0000
  17 O17         -0.9141     2.9225     2.5882 O.2          1    LIG   0.0000
  18 C18          1.3882     2.8870     2.7559 C.2          1    LIG   0.0000
  19 H            1.4345    -0.7575     2.0228 H            1    LIG   0.0000
  20 H           -0.9835     4.7020     4.2356 H            1    LIG   0.0000
  21 H           -1.2352    -2.9619     1.0773 H            1    LIG   0.0000
  22 H            0.1668    -2.8886     1.9113 H            1    LIG   0.0000
  23 H           -1.1619    -2.1279     2.4793 H            1    LIG   0.0000
  24 H            0.2363    -1.3878     0.0638 H            1    LIG   0.0000
  25 H           -1.0924    -0.6271     0.6318 H            1    LIG   0.0000
  26 H           -0.4129    -0.6880     3.5236 H            1    LIG   0.0000
  27 H            0.4211     0.7140     3.5970 H            1    LIG   0.0000
  28 H           -0.9809     0.6406     2.7629 H            1    LIG   0.0000
  29 H            1.5040     0.7433     0.1753 H            1    LIG   0.0000
  30 H            0.1753     1.5040     0.7433 H            1    LIG   0.0000
  31 H            3.4678     0.2046     0.4967 H            1    LIG   0.0000
  32 H            4.7028     1.2728     0.4804 H            1    LIG   0.0000
  33 H            4.5896     0.1739     1.6830 H            1    LIG   0.0000
  34 H           -1.1319     7.1892     6.5381 H            1    LIG   0.0000
  35 H           -1.2627     6.7261     4.9776 H            1    LIG   0.0000
  36 H           -1.3684     5.6158     6.1704 H            1    LIG   0.0000
@<TRIPOS>BOND
   1        1        2 1
   2        2        3 1
   3        3        4 1
   4        3        5 1
   5        5        6 1
   6        6        7 2
   7        7        8 1
   8        7        9 1
   9        9       10 1
  10       10       11 1
  11       11       12 2
  12       12       13 1
  13       13       14 1
  14       12       15 1
  15       15       16 1
  16       16       17 2
  17       16       18 1
  18       18        6 1
  19       18       10 2
  20        3       19 1
  21       15       20 1
  22        1       21 1
  23        1       22 1
  24        1       23 1
  25        2       24 1
  26        2       25 1
  27        4       26 1
  28        4       27 1
  29        4       28 1
  30        5       29 1
  31        5       30 1
  32        8       31 1
  33        8       32 1
  34        8       33 1
  35       14       34 1
  36       14       35 1
  37       14       36 1

@<TRIPOS>MOLECULE

  36   37
SMALL
USER_CHARGES
@<TRIPOS>ATOM
   1 C1          -0.6579    -2.3846     1.6546 C.3          1    LIG   0.0000
   2 C2          -0.2677    -1.1311     0.8885 C.3          1    LIG   0.0000
   3 C3           0.6098    -0.2535     1.7661 C.3          1    LIG   0.0000
   4 C4          -0.1562     0.1366     3.0196 C.3          1    LIG   0.0000
   5 C5           1.0000     1.0000     1.0000 C.3          1    LIG   0.0000
   6 C6           1.8779     1.8779     1.8779 C.2          1    LIG   0.0000
   7 C7           3.2366     1.7411     1.8790 C.2          1    LIG   0.0000
   8 C8           4.0706     0.7645     1.0651 C.3          1    LIG   0.0000
   9 S9           3.8455     2.8885     2.9848 S.3          1    LIG   0.0000
  10 C10          2.3479     3.5370     3.4506 C.2          1    LIG   0.0000
  11 N11          2.2446     4.5363     4.3715 N.2          1    LIG   0.0000
  12 C12          1.0212     4.9390     4.6345 C.2          1    LIG   0.0000
  13 S13          0.8663     6.2125     5.8061 S.3          1    LIG   0.0000
  14 C14          2.5868     6.5397     6.2633 C.3          1    LIG   0.0000
  15 N15         -0.0638     4.3771     4.0153 N.pl3        1    LIG   0.0000
  16 C16          0.1004     3.3731     3.0960 C.2          1    LIG   0.0000
  17 O17         -0.9141     2.9225     2.5882 O.2          1    LIG   0.0000
  18 C18          1.3882     2.8870     2.7559 C.2          1    LIG   0.0000
  19 H            1.4345    -0.7575     2.0228 H            1    LIG   0.0000
  20 H           -0.9835     4.7020     4.2356 H            1    LIG   0.0000
  21 H           -1.2352    -2.9619     1.0773 H            1    LIG   0.0000
  22 H            0.1668    -2.8886     1.9113 H            1    LIG   0.0000
  23 H           -1.1619    -2.1279     2.4793 H            1    LIG   0.0000
  24 H            0.2363    -1.3878     0.0638 H            1    LIG   0.0000
  25 H           -1.0924    -0.6271     0.6318 H            1    LIG   0.0000
  26 H           -0.4129    -0.6880     3.5236 H            1    LIG   0.0000
  27 H            0.4211     0.7140     3.5970 H            1    LIG   0.0000
  28 H           -0.9809     0.6406     2.7629 H            1    LIG   0.0000
  29 H            1.5040     0.7433     0.1753 H            1    LIG   0.0000
  30 H            0.1753     1.5040     0.7433 H            1    LIG   0.0000
  31 H            3.4678     0.2046     0.4967 H            1    LIG   0.0000
  32 H            4.7028     1.2728     0.4804 H            1    LIG   0.0000
  33 H            4.5896     0.1739     1.6830 H            1    LIG   0.0000
  34 H            2.6172     7.2700     6.9457 H            1    LIG   0.0000
  35 H            2.9940     5.7099     6.6447 H            1    LIG   0.0000
  36 H            3.0997     6.8202     5.4519 H            1    LIG   0.0000
@<TRIPOS>BOND
   1        1        2 1
   2        2        3 1
   3        3        4 1
   4        3        5 1
   5        5        6 1
   6        6        7 2
   7        7        8 1
   8        7        9 1
   9        9       10 1
  10       10       11 1
  11       11       12 2
  12       12       13 1
  13       13       14 1
  14       12       15 1
  15       15       16 1
  16       16       17 2
  17       16       18 1
  18       18        6 1
  19       18       10 2
  20        3       19 1
  21       15       20 1
  22        1       21 1
  23        1       22 1
  24        1       23 1
  25        2       24 1
  26        2       25 1
  27        4       26 1
  28        4       27 1
  29        4       28 1
  30        5       29 1
  31        5       30 1
  32        8       31 1
  33        8       32 1
  34        8       33 1
  35       14       34 1
  36       14       35 1
  37       14       36 1

@<TRIPOS>MOLECULE

  36   37
SMALL
USER_CHARGES
@<TRIPOS>ATOM
   1 C1          -0.6579    -2.3846     1.6546 C.3          1    LIG   0.0000
   2 C2          -0.2677    -1.1311     0.8885 C.3          1    LIG   0.0000
   3 C3           0.6098    -0.2535     1.7661 C.3          1    LIG   0.0000
   4 C4          -0.1562     0.1366     3.0196 C.3          1    LIG   0.0000
   5 C5           1.0000     1.0000     1.0000 C.3          1    LIG   0.0000
   6 C6           1.8779     1.8779     1.8779 C.2          1    LIG   0.0000
   7 C7           3.2366     1.7411     1.8790 C.2          1    LIG   0.0000
   8 C8           4.0706     0.7645     1.0651 C.3          1    LIG   0.0000
   9 S9           3.8455     2.8885     2.9848 S.3          1    LIG   0.0000
  10 C10          2.3479     3.5370     3.4506 C.2          1    LIG   0.0000
  11 N11          2.2446     4.5363     4.3715 N.2          1    LIG   0.0000
  12 C12          1.0212     4.9390     4.6345 C.2          1    LIG   0.0000
  13 S13          0.8663     6.2125     5.8061 S.3          1    LIG   0.0000
  14 C14          0.9455     7.7029     4.7821 C.3          1    LIG   0.0000
  15 N15         -0.0638     4.3771     4.0153 N.pl3        1    LIG   0.0000
  16 C16          0.1004     3.3731     3.0960 C.2          1    LIG   0.0000
  17 O17         -0.9141     2.9225     2.5882 O.2          1    LIG   0.0000
  18 C18          1.3882     2.8870     2.7559 C.2          1    LIG   0.0000
  19 H            1.4345    -0.7575     2.0228 H            1    LIG   0.0000
  20 H           -0.9835     4.7020     4.2356 H            1    LIG   0.0000
  21 H           -1.2352    -2.9619     1.0773 H            1    LIG   0.0000
  22 H            0.1668    -2.8886     1.9113 H            1    LIG   0.0000
  23 H           -1.1619    -2.1279     2.4793 H            1    LIG   0.0000
  24 H            0.2363    -1.3878     0.0638 H            1    LIG   0.0000
  25 H           -1.0924    -0.6271     0.6318 H            1    LIG   0.0000
  26 H           -0.4129    -0.6880     3.5236 H            1    LIG   0.0000
  27 H            0.4211     0.7140     3.5970 H            1    LIG   0.0000
  28 H           -0.9809     0.6406     2.7629 H            1    LIG   0.0000
  29 H            1.5040     0.7433     0.1753 H            1    LIG   0.0000
  30 H            0.1753     1.5040     0.7433 H            1    LIG   0.0000
  31 H            3.4678     0.2046     0.4967 H            1    LIG   0.0000
  32 H            4.7028     1.2728     0.4804 H            1    LIG   0.0000
  33 H            4.5896     0.1739     1.6830 H            1    LIG   0.0000
  34 H            0.8648     8.5119     5.3643 H            1    LIG   0.0000
  35 H            1.8193     7.7276     4.2964 H            1    LIG   0.0000
  36 H            0.1962     7.6926     4.1199 H            1    LIG   0.0000
@<TRIPOS>BOND
   1        1        2 1
   2        2        3 1
   3        3        4 1
   4        3        5 1
   5        5        6 1
   6        6        7 2
   7        7        8 1
   8        7        9 1
   9        9       10 1
  10       10       11 1
  11       11       12 2
  12       12       13 1
  13       13       14 1
  14       12       15 1
  15       15       16 1
  16       16       17 2
  17       16       18 1
  18       18        6 1
  19       18       10 2
  20        3       19 1
  21       15       20 1
  22        1       21 1
  23        1       22 1
  24        1       23 1
  25        2       24 1
  26        2       25 1
  27        4       26 1
  28        4       27 1
  29        4       28 1
  30        5       29 1
  31        5       30 1
  32        8       31 1
  33        8       32 1
  34        8       33 1
  35       14       34 1
  36       14       35 1
  37       14       36 1

@<TRIPOS>MOLECULE

  36   37
SMALL
USER_CHARGES
@<TRIPOS>ATOM
   1 C1          -0.6579    -2.3846     1.6546 C.3          1    LIG   0.0000
   2 C2          -0.2677    -1.1311     0.8885 C.3          1    LIG   0.0000
   3 C3           0.6098    -0.2535     1.7661 C.3          1    LIG   0.0000
   4 C4          -0.1562     0.1366     3.0196 C.3          1    LIG   0.0000
   5 C5           1.0000     1.0000     1.0000 C.3          1    LIG   0.0000
   6 C6           1.8779     1.8779     1.8779 C.2          1    LIG   0.0000
   7 C7           3.2366     1.7411     1.8790 C.2          1    LIG   0.0000
   8 C8           4.0706     0.7645     1.0651 C.3          1    LIG   0.0000
   9 S9           3.8455     2.8885     2.9848 S.3          1    LIG   0.0000
  10 C10          2.3479     3.5370     3.4506 C.2          1    LIG   0.0000
  11 N11          2.2446     4.5363     4.3715 N.2          1    LIG   0.0000
  12 C12          1.0212     4.9390     4.6345 C.2          1    LIG   0.0000
  13 S13          0.8663     6.2125     5.8061 S.3          1    LIG   0.0000
  14 C14          0.7167     5.3009     7.3626 C.3          1    LIG   0.0000
  15 N15         -0.0638     4.3771     4.0153 N.pl3        1    LIG   0.0000
  16 C16          0.1004     3.3731     3.0960 C.2          1    LIG   0.0000
  17 O17         -0.9141     2.9225     2.5882 O.2          1    LIG   0.0000
  18 C18          1.3882     2.8870     2.7559 C.2          1    LIG   0.0000
  19 H            1.4345    -0.7575     2.0228 H            1    LIG   0.0000
  20 H           -0.9835     4.7020     4.2356 H            1    LIG   0.0000
  21 H           -1.2352    -2.9619     1.0773 H            1    LIG   0.0000
  22 H            0.1668    -2.8886     1.9113 H            1    LIG   0.0000
  23 H           -1.1619    -2.1279     2.4793 H            1    LIG   0.0000
  24 H            0.2363    -1.3878     0.0638 H            1    LIG   0.0000
  25 H           -1.0924    -0.6271     0.6318 H            1    LIG   0.0000
  26 H           -0.4129    -0.6880     3.5236 H            1    LIG   0.0000
  27 H            0.4211     0.7140     3.5970 H            1    LIG   0.0000
  28 H           -0.9809     0.6406     2.7629 H            1    LIG   0.0000
  29 H            1.5040     0.7433     0.1753 H            1    LIG   0.0000
  30 H            0.1753     1.5040     0.7433 H            1    LIG   0.0000
  31 H            3.4678     0.2046     0.4967 H            1    LIG   0.0000
  32 H            4.7028     1.2728     0.4804 H            1    LIG   0.0000
  33 H            4.5896     0.1739     1.6830 H            1    LIG   0.0000
  34 H            0.6205     5.9473     8.1195 H            1    LIG   0.0000
  35 H           -0.0880     4.7084     7.3259 H            1    LIG   0.0000
  36 H            1.5351     4.7434     7.5024 H            1    LIG   0.0000
@<TRIPOS>BOND
   1        1        2 1
   2        2        3 1
   3        3        4 1
   4        3        5 1
   5        5        6 1
   6        6        7 2
   7        7        8 1
   8        7        9 1
   9        9       10 1
  10       10       11 1
  11       11       12 2
  12       12       13 1
  13       13       14 1
  14       12       15 1
  15       15       16 1
  16       16       17 2
  17       16       18 1
  18       18        6 1
  19       18       10 2
  20        3       19 1
  21       15       20 1
  22        1       21 1
  23        1       22 1
  24        1       23 1
  25        2       24 1
  26        2       25 1
  27        4       26 1
  28        4       27 1
  29        4       28 1
  30        5       29 1
  31        5       30 1
  32        8       31 1
  33        8       32 1
  34        8       33 1
  35       14       34 1
  36       14       35 1
  37       14       36 1

@<TRIPOS>MOLECULE

  36   37
SMALL
USER_CHARGES
@<TRIPOS>ATOM
   1 C1          -0.6579    -2.3846     1.6546 C.3          1    LIG   0.0000
   2 C2          -0.2677    -1.1311     0.8885 C.3          1    LIG   0.0000
   3 C3           0.6098    -0.2535     1.7661 C.3          1    LIG   0.0000
   4 C4          -0.1562     0.1366     3.0196 C.3          1    LIG   0.0000
   5 C5           1.0000     1.0000     1.0000 C.3          1    LIG   0.0000
   6 C6           1.8779     1.8779     1.8779 C.2          1    LIG   0.0000
   7 C7           1.3345     2.8300     2.6921 C.2          1    LIG   0.0000
   8 C8          -0.1371     3.1690     2.8684 C.3          1    LIG   0.0000
   9 S9           2.6337     3.5907     3.4944 S.3          1    LIG   0.0000
  10 C10          3.8758     2.6867     2.7730 C.2          1    LIG   0.0000
  11 N11          5.1904     2.8987     3.0635 N.2          1    LIG   0.0000
  12 C12          6.0419     2.1241     2.4286 C.2          1    LIG   0.0000
  13 S13          7.7236     2.3775     2.7838 S.3          1    LIG   0.0000
  14 C14          8.5385     1.1500     1.7325 C.3          1    LIG   0.0000
  15 N15          5.6162     1.1753     1.5371 N.pl3        1    LIG   0.0000
  16 C16          4.2793     1.0066     1.2837 C.2          1    LIG   0.0000
  17 O17          3.9785     0.1418     0.4762 O.2          1    LIG   0.0000
  18 C18          3.2992     1.8004     1.9315 C.2          1    LIG   0.0000
  19 H            1.4345    -0.7575     2.0228 H            1    LIG   0.0000
  20 H            6.2862     0.6007     1.0671 H            1    LIG   0.0000
  21 H           -1.2352    -2.9619     1.0773 H            1    LIG   0.0000
  22 H            0.1668    -2.8886     1.9113 H            1    LIG   0.0000
  23 H           -1.1619    -2.1279     2.4793 H            1    LIG   0.0000
  24 H            0.2363    -1.3878     0.0638 H            1    LIG   0.0000
  25 H           -1.0924    -0.6271     0.6318 H            1    LIG   0.0000
  26 H           -0.4129    -0.6880     3.5236 H            1    LIG   0.0000
  27 H            0.4211     0.7140     3.5970 H            1    LIG   0.0000
  28 H           -0.9809     0.6406     2.7629 H            1    LIG   0.0000
  29 H            1.5040     0.7433     0.1753 H            1    LIG   0.0000
  30 H            0.1753     1.5040     0.7433 H            1    LIG   0.0000
  31 H           -0.6885     2.5748     2.2827 H            1    LIG   0.0000
  32 H           -0.3988     3.0312     3.8236 H            1    LIG   0.0000
  33 H           -0.2920     4.1238     2.6147 H            1    LIG   0.0000
  34 H            9.5288     1.2077     1.8588 H            1    LIG   0.0000
  35 H            8.2233     0.2346     1.9831 H            1    LIG   0.0000
  36 H            8.3136     1.3294     0.7748 H            1    LIG   0.0000
@<TRIPOS>BOND
   1        1        2 1
   2        2        3 1
   3        3        4 1
   4        3        5 1
   5        5        6 1
   6        6        7 2
   7        7        8 1
   8        7        9 1
   9        9       10 1
  10       10       11 1
  11       11       12 2
  12       12       13 1
  13       13       14 1
  14       12       15 1
  15       15       16 1
  16       16       17 2
  17       16       18 1
  18       18        6 1
  19       18       10 2
  20        3       19 1
  21       15       20 1
  22        1       21 1
  23        1       22 1
  24        1       23 1
  25        2       24 1
  26        2       25 1
  27        4       26 1
  28        4       27 1
  29        4       28 1
  30        5       29 1
  31        5       30 1
  32        8       31 1
  33        8       32 1
  34        8       33 1
  35       14       34 1
  36       14       35 1
  37       14       36 1

@<TRIPOS>MOLECULE

  36   37
SMALL
USER_CHARGES
@<TRIPOS>ATOM
   1 C1          -0.6579    -2.3846     1.6546 C.3          1    LIG   0.0000
   2 C2          -0.2677    -1.1311     0.8885 C.3          1    LIG   0.0000
   3 C3           0.6098    -0.2535     1.7661 C.3          1    LIG   0.0000
   4 C4          -0.1562     0.1366     3.0196 C.3          1    LIG   0.0000
   5 C5           1.0000     1.0000     1.0000 C.3          1    LIG   0.0000
   6 C6           1.8779     1.8779     1.8779 C.2          1    LIG   0.0000
   7 C7           1.3345     2.8300     2.6921 C.2          1    LIG   0.0000
   8 C8          -0.1371     3.1690     2.8684 C.3          1    LIG   0.0000
   9 S9           2.6337     3.5907     3.4944 S.3          1    LIG   0.0000
  10 C10          3.8758     2.6867     2.7730 C.2          1    LIG   0.0000
  11 N11          5.1904     2.8987     3.0635 N.2          1    LIG   0.0000
  12 C12          6.0419     2.1241     2.4286 C.2          1    LIG   0.0000
  13 S13          7.7236     2.3775     2.7838 S.3          1    LIG   0.0000
  14 C14          7.6731     3.7201     3.9966 C.3          1    LIG   0.0000
  15 N15          5.6162     1.1753     1.5371 N.pl3        1    LIG   0.0000
  16 C16          4.2793     1.0066     1.2837 C.2          1    LIG   0.0000
  17 O17          3.9785     0.1418     0.4762 O.2          1    LIG   0.0000
  18 C18          3.2992     1.8004     1.9315 C.2          1    LIG   0.0000
  19 H            1.4345    -0.7575     2.0228 H            1    LIG   0.0000
  20 H            6.2862     0.6007     1.0671 H            1    LIG   0.0000
  21 H           -1.2352    -2.9619     1.0773 H            1    LIG   0.0000
  22 H            0.1668    -2.8886     1.9113 H            1    LIG   0.0000
  23 H           -1.1619    -2.1279     2.4793 H            1    LIG   0.0000
  24 H            0.2363    -1.3878     0.0638 H            1    LIG   0.0000
  25 H           -1.0924    -0.6271     0.6318 H            1    LIG   0.0000
  26 H           -0.4129    -0.6880     3.5236 H            1    LIG   0.0000
  27 H            0.4211     0.7140     3.5970 H            1    LIG   0.0000
  28 H           -0.9809     0.6406     2.7629 H            1    LIG   0.0000
  29 H            1.5040     0.7433     0.1753 H            1    LIG   0.0000
  30 H            0.1753     1.5040     0.7433 H            1    LIG   0.0000
  31 H           -0.6885     2.5748     2.2827 H            1    LIG   0.0000
  32 H           -0.3988     3.0312     3.8236 H            1    LIG   0.0000
  33 H           -0.2920     4.1238     2.6147 H            1    LIG   0.0000
  34 H            8.6048     3.9519     4.2762 H            1    LIG   0.0000
  35 H            7.2384     4.5225     3.5877 H            1    LIG   0.0000
  36 H            7.1481     3.4277     4.7959 H            1    LIG   0.0000
@<TRIPOS>BOND
   1        1        2 1
   2        2        3 1
   3        3        4 1
   4        3        5 1
   5        5        6 1
   6        6        7 2
   7        7        8 1
   8        7        9 1
   9        9       10 1
  10       10       11 1
  11       11       12 2
  12       12       13 1
  13       13       14 1
  14       12       15 1
  15       15       16 1
  16       16       17 2
  17       16       18 1
  18       18        6 1
  19       18       10 2
  20        3       19 1
  21       15       20 1
  22        1       21 1
  23        1       22 1
  24        1       23 1
  25        2       24 1
  26        2       25 1
  27        4       26 1
  28        4       27 1
  29        4       28 1
  30        5       29 1
  31        5       30 1
  32        8       31 1
  33        8       32 1
  34        8       33 1
  35       14       34 1
  36       14       35 1
  37       14       36 1

@<TRIPOS>MOLECULE

  36   37
SMALL
USER_CHARGES
@<TRIPOS>ATOM
   1 C1          -0.6579    -2.3846     1.6546 C.3          1    LIG   0.0000
   2 C2          -0.2677    -1.1311     0.8885 C.3          1    LIG   0.0000
   3 C3           0.6098    -0.2535     1.7661 C.3          1    LIG   0.0000
   4 C4          -0.1562     0.1366     3.0196 C.3          1    LIG   0.0000
   5 C5           1.0000     1.0000     1.0000 C.3          1    LIG   0.0000
   6 C6           1.8779     1.8779     1.8779 C.2          1    LIG   0.0000
   7 C7           1.3345     2.8300     2.6921 C.2          1    LIG   0.0000
   8 C8          -0.1371     3.1690     2.8684 C.3          1    LIG   0.0000
   9 S9           2.6337     3.5907     3.4944 S.3          1    LIG   0.0000
  10 C10          3.8758     2.6867     2.7730 C.2          1    LIG   0.0000
  11 N11          5.1904     2.8987     3.0635 N.2          1    LIG   0.0000
  12 C12          6.0419     2.1241     2.4286 C.2          1    LIG   0.0000
  13 S13          7.7236     2.3775     2.7838 S.3          1    LIG   0.0000
  14 C14          8.0082     1.2508     4.1715 C.3          1    LIG   0.0000
  15 N15          5.6162     1.1753     1.5371 N.pl3        1    LIG   0.0000
  16 C16          4.2793     1.0066     1.2837 C.2          1    LIG   0.0000
  17 O17          3.9785     0.1418     0.4762 O.2          1    LIG   0.0000
  18 C18          3.2992     1.8004     1.9315 C.2          1    LIG   0.0000
  19 H            1.4345    -0.7575     2.0228 H            1    LIG   0.0000
  20 H            6.2862     0.6007     1.0671 H            1    LIG   0.0000
  21 H           -1.2352    -2.9619     1.0773 H            1    LIG   0.0000
  22 H            0.1668    -2.8886     1.9113 H            1    LIG   0.0000
  23 H           -1.1619    -2.1279     2.4793 H            1    LIG   0.0000
  24 H            0.2363    -1.3878     0.0638 H            1    LIG   0.0000
  25 H           -1.0924    -0.6271     0.6318 H            1    LIG   0.0000
  26 H           -0.4129    -0.6880     3.5236 H            1    LIG   0.0000
  27 H            0.4211     0.7140     3.5970 H            1    LIG   0.0000
  28 H           -0.9809     0.6406     2.7629 H            1    LIG   0.0000
  29 H            1.5040     0.7433     0.1753 H            1    LIG   0.0000
  30 H            0.1753     1.5040     0.7433 H            1    LIG   0.0000
  31 H           -0.6885     2.5748     2.2827 H            1    LIG   0.0000
  32 H           -0.3988     3.0312     3.8236 H            1    LIG   0.0000
  33 H           -0.2920     4.1238     2.6147 H            1    LIG   0.0000
  34 H            8.9626     1.3154     4.4630 H            1    LIG   0.0000
  35 H            7.4096     1.5013     4.9324 H            1    LIG   0.0000
  36 H            7.8096     0.3133     3.8859 H            1    LIG   0.0000
@<TRIPOS>BOND
   1        1        2 1
   2        2        3 1
   3        3        4 1
   4        3        5 1
   5        5        6 1
   6        6        7 2
   7        7        8 1
   8        7        9 1
   9        9       10 1
  10       10       11 1
  11       11       12 2
  12       12       13 1
  13       13       14 1
  14       12       15 1
  15       15       16 1
  16       16       17 2
  17       16       18 1
  18       18        6 1
  19       18       10 2
  20        3       19 1
  21       15       20 1
  22        1       21 1
  23        1       22 1
  24        1       23 1
  25        2       24 1
  26        2       25 1
  27        4       26 1
  28        4       27 1
  29        4       28 1
  30        5       29 1
  31        5       30 1
  32        8       31 1
  33        8       32 1
  34        8       33 1
  35       14       34 1
  36       14       35 1
  37       14       36 1

@<TRIPOS>MOLECULE

  36   37
SMALL
USER_CHARGES
@<TRIPOS>ATOM
   1 C1          -0.6579    -2.3846     1.6546 C.3          1    LIG   0.0000
   2 C2          -0.2677    -1.1311     0.8885 C.3          1    LIG   0.0000
   3 C3           0.6098    -0.2535     1.7661 C.3          1    LIG   0.0000
   4 C4          -0.1562     0.1366     3.0196 C.3          1    LIG   0.0000
   5 C5           1.0000     1.0000     1.0000 C.3          1    LIG   0.0000
   6 C6           1.8779     1.8779     1.8779 C.2          1    LIG   0.0000
   7 C7           1.3345     2.8300     2.6921 C.2          1    LIG   0.0000
   8 C8          -0.1371     3.1690     2.8684 C.3          1    LIG   0.0000
   9 S9           2.6337     3.5907     3.4944 S.3          1    LIG   0.0000
  10 C10          3.8758     2.6867     2.7730 C.2          1    LIG   0.0000
  11 N11          5.1904     2.8987     3.0635 N.2          1    LIG   0.0000
  12 C12          6.0419     2.1241     2.4286 C.2          1    LIG   0.0000
  13 S13          7.7236     2.3775     2.7838 S.3          1    LIG   0.0000
  14 C14          8.2034     3.6193     1.5575 C.3          1    LIG   0.0000
  15 N15          5.6162     1.1753     1.5371 N.pl3        1    LIG   0.0000
  16 C16          4.2793     1.0066     1.2837 C.2          1    LIG   0.0000
  17 O17          3.9785     0.1418     0.4762 O.2          1    LIG   0.0000
  18 C18          3.2992     1.8004     1.9315 C.2          1    LIG   0.0000
  19 H            1.4345    -0.7575     2.0228 H            1    LIG   0.0000
  20 H            6.2862     0.6007     1.0671 H            1    LIG   0.0000
  21 H           -1.2352    -2.9619     1.0773 H            1    LIG   0.0000
  22 H            0.1668    -2.8886     1.9113 H            1    LIG   0.0000
  23 H           -1.1619    -2.1279     2.4793 H            1    LIG   0.0000
  24 H            0.2363    -1.3878     0.0638 H            1    LIG   0.0000
  25 H           -1.0924    -0.6271     0.6318 H            1    LIG   0.0000
  26 H           -0.4129    -0.6880     3.5236 H            1    LIG   0.0000
  27 H            0.4211     0.7140     3.5970 H            1    LIG   0.0000
  28 H           -0.9809     0.6406     2.7629 H            1    LIG   0.0000
  29 H            1.5040     0.7433     0.1753 H            1    LIG   0.0000
  30 H            0.1753     1.5040     0.7433 H            1    LIG   0.0000
  31 H           -0.6885     2.5748     2.2827 H            1    LIG   0.0000
  32 H           -0.3988     3.0312     3.8236 H            1    LIG   0.0000
  33 H           -0.2920     4.1238     2.6147 H            1    LIG   0.0000
  34 H            9.1710     3.8443     1.6720 H            1    LIG   0.0000
  35 H            8.0522     3.2558     0.6383 H            1    LIG   0.0000
  36 H            7.6522     4.4438     1.6848 H            1    LIG   0.0000
@<TRIPOS>BOND
   1        1        2 1
   2        2        3 1
   3        3        4 1
   4        3        5 1
   5        5        6 1
   6        6        7 2
   7        7        8 1
   8        7        9 1
   9        9       10 1
  10       10       11 1
  11       11       12 2
  12       12       13 1
  13       13       14 1
  14       12       15 1
  15       15       16 1
  16       16       17 2
  17       16       18 1
  18       18        6 1
  19       18       10 2
  20        3       19 1
  21       15       20 1
  22        1       21 1
  23        1       22 1
  24        1       23 1
  25        2       24 1
  26        2       25 1
  27        4       26 1
  28        4       27 1
  29        4       28 1
  30        5       29 1
  31        5       30 1
  32        8       31 1
  33        8       32 1
  34        8       33 1
  35       14       34 1
  36       14       35 1
  37       14       36 1

@<TRIPOS>MOLECULE

  36   37
SMALL
USER_CHARGES
@<TRIPOS>ATOM
   1 C1          -0.0951    -2.6236     1.5501 C.3          1    LIG   0.0000
   2 C2           0.2951    -1.3701     0.7840 C.3          1    LIG   0.0000
   3 C3           0.6098    -0.2535     1.7661 C.3          1    LIG   0.0000
   4 C4          -0.6166     0.0337     2.6168 C.3          1    LIG   0.0000
   5 C5           1.0000     1.0000     1.0000 C.3          1    LIG   0.0000
   6 C6           1.8779     1.8779     1.8779 C.2          1    LIG   0.0000
   7 C7           1.6082     3.2065     2.0420 C.2          1    LIG   0.0000
   8 C8           0.4666     4.0031     1.4305 C.3          1    LIG   0.0000
   9 S9           2.8112     3.8280     3.0796 S.3          1    LIG   0.0000
  10 C10          3.6650     2.3769     3.2936 C.2          1    LIG   0.0000
  11 N11          4.7846     2.3009     4.0670 N.2          1    LIG   0.0000
  12 C12          5.3416     1.1124     4.1406 C.2          1    LIG   0.0000
  13 S13          6.7707     0.9928     5.1214 S.3          1    LIG   0.0000
  14 C14          7.2154    -0.7542     4.9598 C.3          1    LIG   0.0000
  15 N15          4.8175     0.0360     3.4751 N.pl3        1    LIG   0.0000
  16 C16          3.6876     0.1717     2.7102 C.2          1    LIG   0.0000
  17 O17          3.2821    -0.8326     2.1471 O.2          1    LIG   0.0000
  18 C18          3.0270     1.4199     2.5841 C.2          1    LIG   0.0000
  19 H            1.3671    -0.5325     2.3566 H            1    LIG   0.0000
  20 H            5.2627    -0.8564     3.5477 H            1    LIG   0.0000
  21 H           -0.3021    -3.3583     0.9040 H            1    LIG   0.0000
  22 H            0.6622    -2.9027     2.1406 H            1    LIG   0.0000
  23 H           -0.9020    -2.4347     2.1097 H            1    LIG   0.0000
  24 H            1.1020    -1.5591     0.2244 H            1    LIG   0.0000
  25 H           -0.4622    -1.0911     0.1935 H            1    LIG   0.0000
  26 H           -0.8733    -0.7909     3.1208 H            1    LIG   0.0000
  27 H           -0.4096     0.7684     3.2629 H            1    LIG   0.0000
  28 H           -1.3739     0.3128     2.0263 H            1    LIG   0.0000
  29 H            1.5040     0.7433     0.1753 H            1    LIG   0.0000
  30 H            0.1753     1.5040     0.7433 H            1    LIG   0.0000
  31 H           -0.0939     3.4002     0.8627 H            1    LIG   0.0000
  32 H           -0.0961     4.3925     2.1596 H            1    LIG   0.0000
  33 H            0.8391     4.7404     0.8669 H            1    LIG   0.0000
  34 H            8.0401    -0.9390     5.4943 H            1    LIG   0.0000
  35 H            6.4648    -1.3219     5.2981 H            1    LIG   0.0000
  36 H            7.3868    -0.9669     3.9979 H            1    LIG   0.0000
@<TRIPOS>BOND
   1        1        2 1
   2        2        3 1
   3        3        4 1
   4        3        5 1
   5        5        6 1
   6        6        7 2
   7        7        8 1
   8        7        9 1
   9        9       10 1
  10       10       11 1
  11       11       12 2
  12       12       13 1
  13       13       14 1
  14       12       15 1
  15       15       16 1
  16       16       17 2
  17       16       18 1
  18       18        6 1
  19       18       10 2
  20        3       19 1
  21       15       20 1
  22        1       21 1
  23        1       22 1
  24        1       23 1
  25        2       24 1
  26        2       25 1
  27        4       26 1
  28        4       27 1
  29        4       28 1
  30        5       29 1
  31        5       30 1
  32        8       31 1
  33        8       32 1
  34        8       33 1
  35       14       34 1
  36       14       35 1
  37       14       36 1

@<TRIPOS>MOLECULE

  36   37
SMALL
USER_CHARGES
@<TRIPOS>ATOM
   1 C1          -0.0951    -2.6236     1.5501 C.3          1    LIG   0.0000
   2 C2           0.2951    -1.3701     0.7840 C.3          1    LIG   0.0000
   3 C3           0.6098    -0.2535     1.7661 C.3          1    LIG   0.0000
   4 C4          -0.6166     0.0337     2.6168 C.3          1    LIG   0.0000
   5 C5           1.0000     1.0000     1.0000 C.3          1    LIG   0.0000
   6 C6           1.8779     1.8779     1.8779 C.2          1    LIG   0.0000
   7 C7           1.6082     3.2065     2.0420 C.2          1    LIG   0.0000
   8 C8           0.4666     4.0031     1.4305 C.3          1    LIG   0.0000
   9 S9           2.8112     3.8280     3.0796 S.3          1    LIG   0.0000
  10 C10          3.6650     2.3769     3.2936 C.2          1    LIG   0.0000
  11 N11          4.7846     2.3009     4.0670 N.2          1    LIG   0.0000
  12 C12          5.3416     1.1124     4.1406 C.2          1    LIG   0.0000
  13 S13          6.7707     0.9928     5.1214 S.3          1    LIG   0.0000
  14 C14          6.9755     2.6856     5.7287 C.3          1    LIG   0.0000
  15 N15          4.8175     0.0360     3.4751 N.pl3        1    LIG   0.0000
  16 C16          3.6876     0.1717     2.7102 C.2          1    LIG   0.0000
  17 O17          3.2821    -0.8326     2.1471 O.2          1    LIG   0.0000
  18 C18          3.0270     1.4199     2.5841 C.2          1    LIG   0.0000
  19 H            1.3671    -0.5325     2.3566 H            1    LIG   0.0000
  20 H            5.2627    -0.8564     3.5477 H            1    LIG   0.0000
  21 H           -0.3021    -3.3583     0.9040 H            1    LIG   0.0000
  22 H            0.6622    -2.9027     2.1406 H            1    LIG   0.0000
  23 H           -0.9020    -2.4347     2.1097 H            1    LIG   0.0000
  24 H            1.1020    -1.5591     0.2244 H            1    LIG   0.0000
  25 H           -0.4622    -1.0911     0.1935 H            1    LIG   0.0000
  26 H           -0.8733    -0.7909     3.1208 H            1    LIG   0.0000
  27 H           -0.4096     0.7684     3.2629 H            1    LIG   0.0000
  28 H           -1.3739     0.3128     2.0263 H            1    LIG   0.0000
  29 H            1.5040     0.7433     0.1753 H            1    LIG   0.0000
  30 H            0.1753     1.5040     0.7433 H            1    LIG   0.0000
  31 H           -0.0939     3.4002     0.8627 H            1    LIG   0.0000
  32 H           -0.0961     4.3925     2.1596 H            1    LIG   0.0000
  33 H            0.8391     4.7404     0.8669 H            1    LIG   0.0000
  34 H            7.7840     2.7337     6.3152 H            1    LIG   0.0000
  35 H            7.0888     3.3066     4.9532 H            1    LIG   0.0000
  36 H            6.1668     2.9516     6.2534 H            1    LIG   0.0000
@<TRIPOS>BOND
   1        1        2 1
   2        2        3 1
   3        3        4 1
   4        3        5 1
   5        5        6 1
   6        6        7 2
   7        7        8 1
   8        7        9 1
   9        9       10 1
  10       10       11 1
  11       11       12 2
  12       12       13 1
  13       13       14 1
  14       12       15 1
  15       15       16 1
  16       16       17 2
  17       16       18 1
  18       18        6 1
  19       18       10 2
  20        3       19 1
  21       15       20 1
  22        1       21 1
  23        1       22 1
  24        1       23 1
  25        2       24 1
  26        2       25 1
  27        4       26 1
  28        4       27 1
  29        4       28 1
  30        5       29 1
  31        5       30 1
  32        8       31 1
  33        8       32 1
  34        8       33 1
  35       14       34 1
  36       14       35 1
  37       14       36 1

@<TRIPOS>MOLECULE

  36   37
SMALL
USER_CHARGES
@<TRIPOS>ATOM
   1 C1          -0.0951    -2.6236     1.5501 C.3          1    LIG   0.0000
   2 C2           0.2951    -1.3701     0.7840 C.3          1    LIG   0.0000
   3 C3           0.6098    -0.2535     1.7661 C.3          1    LIG   0.0000
   4 C4          -0.6166     0.0337     2.6168 C.3          1    LIG   0.0000
   5 C5           1.0000     1.0000     1.0000 C.3          1    LIG   0.0000
   6 C6           1.8779     1.8779     1.8779 C.2          1    LIG   0.0000
   7 C7           1.6082     3.2065     2.0420 C.2          1    LIG   0.0000
   8 C8           0.4666     4.0031     1.4305 C.3          1    LIG   0.0000
   9 S9           2.8112     3.8280     3.0796 S.3          1    LIG   0.0000
  10 C10          3.6650     2.3769     3.2936 C.2          1    LIG   0.0000
  11 N11          4.7846     2.3009     4.0670 N.2          1    LIG   0.0000
  12 C12          5.3416     1.1124     4.1406 C.2          1    LIG   0.0000
  13 S13          6.7707     0.9928     5.1214 S.3          1    LIG   0.0000
  14 C14          6.0981     0.5817     6.7507 C.3          1    LIG   0.0000
  15 N15          4.8175     0.0360     3.4751 N.pl3        1    LIG   0.0000
  16 C16          3.6876     0.1717     2.7102 C.2          1    LIG   0.0000
  17 O17          3.2821    -0.8326     2.1471 O.2          1    LIG   0.0000
  18 C18          3.0270     1.4199     2.5841 C.2          1    LIG   0.0000
  19 H            1.3671    -0.5325     2.3566 H            1    LIG   0.0000
  20 H            5.2627    -0.8564     3.5477 H            1    LIG   0.0000
  21 H           -0.3021    -3.3583     0.9040 H            1    LIG   0.0000
  22 H            0.6622    -2.9027     2.1406 H            1    LIG   0.0000
  23 H           -0.9020    -2.4347     2.1097 H            1    LIG   0.0000
  24 H            1.1020    -1.5591     0.2244 H            1    LIG   0.0000
  25 H           -0.4622    -1.0911     0.1935 H            1    LIG   0.0000
  26 H           -0.8733    -0.7909     3.1208 H            1    LIG   0.0000
  27 H           -0.4096     0.7684     3.2629 H            1    LIG   0.0000
  28 H           -1.3739     0.3128     2.0263 H            1    LIG   0.0000
  29 H            1.5040     0.7433     0.1753 H            1    LIG   0.0000
  30 H            0.1753     1.5040     0.7433 H            1    LIG   0.0000
  31 H           -0.0939     3.4002     0.8627 H            1    LIG   0.0000
  32 H           -0.0961     4.3925     2.1596 H            1    LIG   0.0000
  33 H            0.8391     4.7404     0.8669 H            1    LIG   0.0000
  34 H            6.8471     0.4874     7.4064 H            1    LIG   0.0000
  35 H            5.4823     1.3103     7.0507 H            1    LIG   0.0000
  36 H            5.5932    -0.2797     6.6952 H            1    LIG   0.0000
@<TRIPOS>BOND
   1        1        2 1
   2        2        3 1
   3        3        4 1
   4        3        5 1
   5        5        6 1
   6        6        7 2
   7        7        8 1
   8        7        9 1
   9        9       10 1
  10       10       11 1
  11       11       12 2
  12       12       13 1
  13       13       14 1
  14       12       15 1
  15       15       16 1
  16       16       17 2
  17       16       18 1
  18       18        6 1
  19       18       10 2
  20        3       19 1
  21       15       20 1
  22        1       21 1
  23        1       22 1
  24        1       23 1
  25        2       24 1
  26        2       25 1
  27        4       26 1
  28        4       27 1
  29        4       28 1
  30        5       29 1
  31        5       30 1
  32        8       31 1
  33        8       32 1
  34        8       33 1
  35       14       34 1
  36       14       35 1
  37       14       36 1

@<TRIPOS>MOLECULE

  36   37
SMALL
USER_CHARGES
@<TRIPOS>ATOM
   1 C1          -0.0951    -2.6236     1.5501 C.3          1    LIG   0.0000
   2 C2           0.2951    -1.3701     0.7840 C.3          1    LIG   0.0000
   3 C3           0.6098    -0.2535     1.7661 C.3          1    LIG   0.0000
   4 C4          -0.6166     0.0337     2.6168 C.3          1    LIG   0.0000
   5 C5           1.0000     1.0000     1.0000 C.3          1    LIG   0.0000
   6 C6           1.8779     1.8779     1.8779 C.2          1    LIG   0.0000
   7 C7           1.6082     3.2065     2.0420 C.2          1    LIG   0.0000
   8 C8           0.4666     4.0031     1.4305 C.3          1    LIG   0.0000
   9 S9           2.8112     3.8280     3.0796 S.3          1    LIG   0.0000
  10 C10          3.6650     2.3769     3.2936 C.2          1    LIG   0.0000
  11 N11          4.7846     2.3009     4.0670 N.2          1    LIG   0.0000
  12 C12          5.3416     1.1124     4.1406 C.2          1    LIG   0.0000
  13 S13          6.7707     0.9928     5.1214 S.3          1    LIG   0.0000
  14 C14          8.0928     1.3496     3.9379 C.3          1    LIG   0.0000
  15 N15          4.8175     0.0360     3.4751 N.pl3        1    LIG   0.0000
  16 C16          3.6876     0.1717     2.7102 C.2          1    LIG   0.0000
  17 O17          3.2821    -0.8326     2.1471 O.2          1    LIG   0.0000
  18 C18          3.0270     1.4199     2.5841 C.2          1    LIG   0.0000
  19 H            1.3671    -0.5325     2.3566 H            1    LIG   0.0000
  20 H            5.2627    -0.8564     3.5477 H            1    LIG   0.0000
  21 H           -0.3021    -3.3583     0.9040 H            1    LIG   0.0000
  22 H            0.6622    -2.9027     2.1406 H            1    LIG   0.0000
  23 H           -0.9020    -2.4347     2.1097 H            1    LIG   0.0000
  24 H            1.1020    -1.5591     0.2244 H            1    LIG   0.0000
  25 H           -0.4622    -1.0911     0.1935 H            1    LIG   0.0000
  26 H           -0.8733    -0.7909     3.1208 H            1    LIG   0.0000
  27 H           -0.4096     0.7684     3.2629 H            1    LIG   0.0000
  28 H           -1.3739     0.3128     2.0263 H            1    LIG   0.0000
  29 H            1.5040     0.7433     0.1753 H            1    LIG   0.0000
  30 H            0.1753     1.5040     0.7433 H            1    LIG   0.0000
  31 H           -0.0939     3.4002     0.8627 H            1    LIG   0.0000
  32 H           -0.0961     4.3925     2.1596 H            1    LIG   0.0000
  33 H            0.8391     4.7404     0.8669 H            1    LIG   0.0000
  34 H            8.9770     1.3073     4.4031 H            1    LIG   0.0000
  35 H            8.0714     0.6743     3.2006 H            1    LIG   0.0000
  36 H            7.9605     2.2643     3.5560 H            1    LIG   0.0000
@<TRIPOS>BOND
   1        1        2 1
   2        2        3 1
   3        3        4 1
   4        3        5 1
   5        5        6 1
   6        6        7 2
   7        7        8 1
   8        7        9 1
   9        9       10 1
  10       10       11 1
  11       11       12 2
  12       12       13 1
  13       13       14 1
  14       12       15 1
  15       15       16 1
  16       16       17 2
  17       16       18 1
  18       18        6 1
  19       18       10 2
  20        3       19 1
  21       15       20 1
  22        1       21 1
  23        1       22 1
  24        1       23 1
  25        2       24 1
  26        2       25 1
  27        4       26 1
  28        4       27 1
  29        4       28 1
  30        5       29 1
  31        5       30 1
  32        8       31 1
  33        8       32 1
  34        8       33 1
  35       14       34 1
  36       14       35 1
  37       14       36 1

