@<TRIPOS>MOLECULE
*****
 36 37 0 0 0
SMALL
USER_CHARGES

@<TRIPOS>ATOM
      1 C1         -0.6579   -2.3846    1.6546 C.3     1  LIG1        0.0000
      2 C2         -0.2677   -1.1311    0.8885 C.3     1  LIG1        0.0000
      3 C3          0.6098   -0.2535    1.7661 C.3     1  LIG1        0.0000
      4 C4         -0.1562    0.1366    3.0196 C.3     1  LIG1        0.0000
      5 C5          1.0000    1.0000    1.0000 C.3     1  LIG1        0.0000
      6 C6          1.8779    1.8779    1.8779 C.2     1  LIG1        0.0000
      7 C7          1.3345    2.8300    2.6921 C.2     1  LIG1        0.0000
      8 C8         -0.1371    3.1690    2.8684 C.3     1  LIG1        0.0000
      9 S9          2.6337    3.5907    3.4944 S.3     1  LIG1        0.0000
     10 C10         3.8758    2.6867    2.7730 C.2     1  LIG1        0.0000
     11 N11         5.1904    2.8987    3.0635 N.2     1  LIG1        0.0000
     12 C12         6.0419    2.1241    2.4286 C.2     1  LIG1        0.0000
     13 S13         7.7236    2.3775    2.7838 S.3     1  LIG1        0.0000
     14 C14         8.5385    1.1500    1.7325 C.3     1  LIG1        0.0000
     15 N15         5.6162    1.1753    1.5371 N.am    1  LIG1        0.0000
     16 C16         4.2793    1.0066    1.2837 C.2     1  LIG1        0.0000
     17 O17         3.9785    0.1418    0.4762 O.2     1  LIG1        0.0000
     18 C18         3.2992    1.8004    1.9315 C.2     1  LIG1        0.0000
     19 H           1.4345   -0.7575    2.0228 H       1  LIG1        0.0000
     20 H           6.2862    0.6007    1.0671 H       1  LIG1        0.0000
     21 H          -1.2352   -2.9619    1.0773 H       1  LIG1        0.0000
     22 H           0.1668   -2.8886    1.9113 H       1  LIG1        0.0000
     23 H          -1.1619   -2.1279    2.4793 H       1  LIG1        0.0000
     24 H           0.2363   -1.3878    0.0638 H       1  LIG1        0.0000
     25 H          -1.0924   -0.6271    0.6318 H       1  LIG1        0.0000
     26 H          -0.4129   -0.6880    3.5236 H       1  LIG1        0.0000
     27 H           0.4211    0.7140    3.5970 H       1  LIG1        0.0000
     28 H          -0.9809    0.6406    2.7629 H       1  LIG1        0.0000
     29 H           1.5040    0.7433    0.1753 H       1  LIG1        0.0000
     30 H           0.1753    1.5040    0.7433 H       1  LIG1        0.0000
     31 H          -0.6885    2.5748    2.2827 H       1  LIG1        0.0000
     32 H          -0.3988    3.0312    3.8236 H       1  LIG1        0.0000
     33 H          -0.2920    4.1238    2.6147 H       1  LIG1        0.0000
     34 H           9.5288    1.2077    1.8588 H       1  LIG1        0.0000
     35 H           8.2233    0.2346    1.9831 H       1  LIG1        0.0000
     36 H           8.3136    1.3294    0.7748 H       1  LIG1        0.0000
@<TRIPOS>BOND
     1     1     2    1
     2     2     3    1
     3     3     4    1
     4     3     5    1
     5     5     6    1
     6     6     7    2
     7     7     8    1
     8     7     9    1
     9     9    10    1
    10    10    11    1
    11    11    12    2
    12    12    13    1
    13    13    14    1
    14    12    15    1
    15    15    16   am
    16    16    17    2
    17    16    18    1
    18    18     6    1
    19    18    10    2
    20     3    19    1
    21    15    20    1
    22     1    21    1
    23     1    22    1
    24     1    23    1
    25     2    24    1
    26     2    25    1
    27     4    26    1
    28     4    27    1
    29     4    28    1
    30     5    29    1
    31     5    30    1
    32     8    31    1
    33     8    32    1
    34     8    33    1
    35    14    34    1
    36    14    35    1
    37    14    36    1
