@<TRIPOS>MOLECULE
*****
 36 37 0 0 0
SMALL
USER_CHARGES

@<TRIPOS>ATOM
      1 C1         -0.6579   -2.3846    1.6546 C.3     1  LIG1        0.0000
      2 C2         -0.2677   -1.1311    0.8885 C.3     1  LIG1        0.0000
      3 C3          0.6098   -0.2535    1.7661 C.3     1  LIG1        0.0000
      4 C4         -0.1562    0.1366    3.0196 C.3     1  LIG1        0.0000
      5 C5          1.0000    1.0000    1.0000 C.3     1  LIG1        0.0000
      6 C6          1.8779    1.8779    1.8779 C.2     1  LIG1        0.0000
      7 C7          3.2366    1.7411    1.8790 C.2     1  LIG1        0.0000
      8 C8          4.0706    0.7645    1.0651 C.3     1  LIG1        0.0000
      9 S9          3.8455    2.8885    2.9848 S.3     1  LIG1        0.0000
     10 C10         2.3479    3.5370    3.4506 C.2     1  LIG1        0.0000
     11 N11         2.2446    4.5363    4.3715 N.2     1  LIG1        0.0000
     12 C12         1.0212    4.9390    4.6345 C.2     1  LIG1        0.0000
     13 S13         0.8663    6.2125    5.8061 S.3     1  LIG1        0.0000
     14 C14         0.9455    7.7029    4.7821 C.3     1  LIG1        0.0000
     15 N15        -0.0638    4.3771    4.0153 N.am    1  LIG1        0.0000
     16 C16         0.1004    3.3731    3.0960 C.2     1  LIG1        0.0000
     17 O17        -0.9141    2.9225    2.5882 O.2     1  LIG1        0.0000
     18 C18         1.3882    2.8870    2.7559 C.2     1  LIG1        0.0000
     19 H           1.4345   -0.7575    2.0228 H       1  LIG1        0.0000
     20 H          -0.9835    4.7020    4.2356 H       1  LIG1        0.0000
     21 H          -1.2352   -2.9619    1.0773 H       1  LIG1        0.0000
     22 H           0.1668   -2.8886    1.9113 H       1  LIG1        0.0000
     23 H          -1.1619   -2.1279    2.4793 H       1  LIG1        0.0000
     24 H           0.2363   -1.3878    0.0638 H       1  LIG1        0.0000
     25 H          -1.0924   -0.6271    0.6318 H       1  LIG1        0.0000
     26 H          -0.4129   -0.6880    3.5236 H       1  LIG1        0.0000
     27 H           0.4211    0.7140    3.5970 H       1  LIG1        0.0000
     28 H          -0.9809    0.6406    2.7629 H       1  LIG1        0.0000
     29 H           1.5040    0.7433    0.1753 H       1  LIG1        0.0000
     30 H           0.1753    1.5040    0.7433 H       1  LIG1        0.0000
     31 H           3.4678    0.2046    0.4967 H       1  LIG1        0.0000
     32 H           4.7028    1.2728    0.4804 H       1  LIG1        0.0000
     33 H           4.5896    0.1739    1.6830 H       1  LIG1        0.0000
     34 H           0.8648    8.5119    5.3643 H       1  LIG1        0.0000
     35 H           1.8193    7.7276    4.2964 H       1  LIG1        0.0000
     36 H           0.1962    7.6926    4.1199 H       1  LIG1        0.0000
@<TRIPOS>BOND
     1     1     2    1
     2     2     3    1
     3     3     4    1
     4     3     5    1
     5     5     6    1
     6     6     7    2
     7     7     8    1
     8     7     9    1
     9     9    10    1
    10    10    11    1
    11    11    12    2
    12    12    13    1
    13    13    14    1
    14    12    15    1
    15    15    16   am
    16    16    17    2
    17    16    18    1
    18    18     6    1
    19    18    10    2
    20     3    19    1
    21    15    20    1
    22     1    21    1
    23     1    22    1
    24     1    23    1
    25     2    24    1
    26     2    25    1
    27     4    26    1
    28     4    27    1
    29     4    28    1
    30     5    29    1
    31     5    30    1
    32     8    31    1
    33     8    32    1
    34     8    33    1
    35    14    34    1
    36    14    35    1
    37    14    36    1
