@<TRIPOS>MOLECULE
*****
 36 37 0 0 0
SMALL
USER_CHARGES

@<TRIPOS>ATOM
      1 C1         -0.0951   -2.6236    1.5501 C.3     1  LIG1        0.0000
      2 C2          0.2951   -1.3701    0.7840 C.3     1  LIG1        0.0000
      3 C3          0.6098   -0.2535    1.7661 C.3     1  LIG1        0.0000
      4 C4         -0.6166    0.0337    2.6168 C.3     1  LIG1        0.0000
      5 C5          1.0000    1.0000    1.0000 C.3     1  LIG1        0.0000
      6 C6          1.8779    1.8779    1.8779 C.2     1  LIG1        0.0000
      7 C7          1.6082    3.2065    2.0420 C.2     1  LIG1        0.0000
      8 C8          0.4666    4.0031    1.4305 C.3     1  LIG1        0.0000
      9 S9          2.8112    3.8280    3.0796 S.3     1  LIG1        0.0000
     10 C10         3.6650    2.3769    3.2936 C.2     1  LIG1        0.0000
     11 N11         4.7846    2.3009    4.0670 N.2     1  LIG1        0.0000
     12 C12         5.3416    1.1124    4.1406 C.2     1  LIG1        0.0000
     13 S13         6.7707    0.9928    5.1214 S.3     1  LIG1        0.0000
     14 C14         7.2154   -0.7542    4.9598 C.3     1  LIG1        0.0000
     15 N15         4.8175    0.0360    3.4751 N.am    1  LIG1        0.0000
     16 C16         3.6876    0.1717    2.7102 C.2     1  LIG1        0.0000
     17 O17         3.2821   -0.8326    2.1471 O.2     1  LIG1        0.0000
     18 C18         3.0270    1.4199    2.5841 C.2     1  LIG1        0.0000
     19 H           1.3671   -0.5325    2.3566 H       1  LIG1        0.0000
     20 H           5.2627   -0.8564    3.5477 H       1  LIG1        0.0000
     21 H          -0.3021   -3.3583    0.9040 H       1  LIG1        0.0000
     22 H           0.6622   -2.9027    2.1406 H       1  LIG1        0.0000
     23 H          -0.9020   -2.4347    2.1097 H       1  LIG1        0.0000
     24 H           1.1020   -1.5591    0.2244 H       1  LIG1        0.0000
     25 H          -0.4622   -1.0911    0.1935 H       1  LIG1        0.0000
     26 H          -0.8733   -0.7909    3.1208 H       1  LIG1        0.0000
     27 H          -0.4096    0.7684    3.2629 H       1  LIG1        0.0000
     28 H          -1.3739    0.3128    2.0263 H       1  LIG1        0.0000
     29 H           1.5040    0.7433    0.1753 H       1  LIG1        0.0000
     30 H           0.1753    1.5040    0.7433 H       1  LIG1        0.0000
     31 H          -0.0939    3.4002    0.8627 H       1  LIG1        0.0000
     32 H          -0.0961    4.3925    2.1596 H       1  LIG1        0.0000
     33 H           0.8391    4.7404    0.8669 H       1  LIG1        0.0000
     34 H           8.0401   -0.9390    5.4943 H       1  LIG1        0.0000
     35 H           6.4648   -1.3219    5.2981 H       1  LIG1        0.0000
     36 H           7.3868   -0.9669    3.9979 H       1  LIG1        0.0000
@<TRIPOS>BOND
     1     1     2    1
     2     2     3    1
     3     3     4    1
     4     3     5    1
     5     5     6    1
     6     6     7    2
     7     7     8    1
     8     7     9    1
     9     9    10    1
    10    10    11    1
    11    11    12    2
    12    12    13    1
    13    13    14    1
    14    12    15    1
    15    15    16   am
    16    16    17    2
    17    16    18    1
    18    18     6    1
    19    18    10    2
    20     3    19    1
    21    15    20    1
    22     1    21    1
    23     1    22    1
    24     1    23    1
    25     2    24    1
    26     2    25    1
    27     4    26    1
    28     4    27    1
    29     4    28    1
    30     5    29    1
    31     5    30    1
    32     8    31    1
    33     8    32    1
    34     8    33    1
    35    14    34    1
    36    14    35    1
    37    14    36    1
