@<TRIPOS>MOLECULE

  31   33
SMALL
USER_CHARGES
@<TRIPOS>ATOM
   1 O1          -0.9536    -2.3948    -0.4856 O.2          1    LIG   0.0000
   2 C2          -0.4948    -1.2667    -0.4073 C.2          1    LIG   0.0000
   3 C3           0.9970    -1.1133    -0.1460 C.3          1    LIG   0.0000
   4 C4           1.1428    -0.0020     0.8828 C.3          1    LIG   0.0000
   5 N5           0.4148     1.2287     0.5430 N.am         1    LIG   0.0000
   6 C6           0.8274     2.4111     1.1693 C.2          1    LIG   0.0000
   7 O7           0.2621     3.4433     0.9344 O.2          1    LIG   0.0000
   8 C8           1.9375     2.3885     2.1014 C.2          1    LIG   0.0000
   9 C9           3.1478     3.1216     1.9667 C.2          1    LIG   0.0000
  10 C10          4.0683     2.9582     2.9587 C.2          1    LIG   0.0000
  11 S11          3.3331     1.8580     4.0328 S.3          1    LIG   0.0000
  12 C12          1.8588     1.6130     3.2186 C.2          1    LIG   0.0000
  13 C13         -0.7053     1.1877    -0.4124 C.3          1    LIG   0.0000
  14 C14         -1.8749     1.9976     0.1135 C.3          1    LIG   0.0000
  15 C15         -3.0344     1.4746    -0.7016 C.3          1    LIG   0.0000
  16 C16         -2.7403    -0.0056    -0.8183 C.3          1    LIG   0.0000
  17 N17         -1.3050    -0.1356    -0.5463 N.am         1    LIG   0.0000
  18 H           -0.4154     1.5320    -1.3055 H            1    LIG   0.0000
  19 H            1.4721    -0.8667    -0.9907 H            1    LIG   0.0000
  20 H            1.3748    -1.9672     0.2118 H            1    LIG   0.0000
  21 H            0.7990    -0.3385     1.7595 H            1    LIG   0.0000
  22 H            2.1138     0.2210     0.9690 H            1    LIG   0.0000
  23 H            3.3149     3.7245     1.1865 H            1    LIG   0.0000
  24 H            4.9688     3.3859     3.0380 H            1    LIG   0.0000
  25 H            1.0991     1.0265     3.4995 H            1    LIG   0.0000
  26 H           -1.7359     2.9754    -0.0432 H            1    LIG   0.0000
  27 H           -2.0172     1.8334     1.0896 H            1    LIG   0.0000
  28 H           -3.9025     1.6311    -0.2306 H            1    LIG   0.0000
  29 H           -3.0618     1.9064    -1.6032 H            1    LIG   0.0000
  30 H           -3.2724    -0.5227    -0.1479 H            1    LIG   0.0000
  31 H           -2.9539    -0.3340    -1.7384 H            1    LIG   0.0000
@<TRIPOS>BOND
   1        1        2 2
   2        2        3 1
   3        3        4 1
   4        4        5 1
   5        5        6 am
   6        6        7 2
   7        6        8 1
   8        8        9 1
   9        9       10 2
  10       10       11 1
  11       11       12 1
  12       12        8 2
  13        5       13 1
  14       13       14 1
  15       14       15 1
  16       15       16 1
  17       16       17 1
  18       17        2 am
  19       17       13 1
  20       13       18 1
  21        3       19 1
  22        3       20 1
  23        4       21 1
  24        4       22 1
  25        9       23 1
  26       10       24 1
  27       12       25 1
  28       14       26 1
  29       14       27 1
  30       15       28 1
  31       15       29 1
  32       16       30 1
  33       16       31 1

@<TRIPOS>MOLECULE

  31   33
SMALL
USER_CHARGES
@<TRIPOS>ATOM
   1 O1          -0.9536    -2.3948    -0.4856 O.2          1    LIG   0.0000
   2 C2          -0.4948    -1.2667    -0.4073 C.2          1    LIG   0.0000
   3 C3           0.9970    -1.1133    -0.1460 C.3          1    LIG   0.0000
   4 C4           1.1428    -0.0020     0.8828 C.3          1    LIG   0.0000
   5 N5           0.4148     1.2287     0.5430 N.am         1    LIG   0.0000
   6 C6           0.8274     2.4111     1.1693 C.2          1    LIG   0.0000
   7 O7           0.2621     3.4433     0.9344 O.2          1    LIG   0.0000
   8 C8           1.9375     2.3885     2.1014 C.2          1    LIG   0.0000
   9 C9           1.8778     2.7659     3.4705 C.2          1    LIG   0.0000
  10 C10          3.0403     2.6708     4.1761 C.2          1    LIG   0.0000
  11 S11          4.1723     2.0958     3.0392 S.3          1    LIG   0.0000
  12 C12          3.1633     1.9759     1.6739 C.2          1    LIG   0.0000
  13 C13         -0.7053     1.1877    -0.4124 C.3          1    LIG   0.0000
  14 C14         -1.8749     1.9976     0.1135 C.3          1    LIG   0.0000
  15 C15         -3.0344     1.4746    -0.7016 C.3          1    LIG   0.0000
  16 C16         -2.7403    -0.0056    -0.8183 C.3          1    LIG   0.0000
  17 N17         -1.3050    -0.1356    -0.5463 N.am         1    LIG   0.0000
  18 H           -0.4154     1.5320    -1.3055 H            1    LIG   0.0000
  19 H            1.4721    -0.8667    -0.9907 H            1    LIG   0.0000
  20 H            1.3748    -1.9672     0.2118 H            1    LIG   0.0000
  21 H            0.7990    -0.3385     1.7595 H            1    LIG   0.0000
  22 H            2.1138     0.2210     0.9690 H            1    LIG   0.0000
  23 H            1.0291     3.0838     3.8932 H            1    LIG   0.0000
  24 H            3.1937     2.8886     5.1399 H            1    LIG   0.0000
  25 H            3.4158     1.6690     0.7562 H            1    LIG   0.0000
  26 H           -1.7359     2.9754    -0.0432 H            1    LIG   0.0000
  27 H           -2.0172     1.8334     1.0896 H            1    LIG   0.0000
  28 H           -3.9025     1.6311    -0.2306 H            1    LIG   0.0000
  29 H           -3.0618     1.9064    -1.6032 H            1    LIG   0.0000
  30 H           -3.2724    -0.5227    -0.1479 H            1    LIG   0.0000
  31 H           -2.9539    -0.3340    -1.7384 H            1    LIG   0.0000
@<TRIPOS>BOND
   1        1        2 2
   2        2        3 1
   3        3        4 1
   4        4        5 1
   5        5        6 am
   6        6        7 2
   7        6        8 1
   8        8        9 1
   9        9       10 2
  10       10       11 1
  11       11       12 1
  12       12        8 2
  13        5       13 1
  14       13       14 1
  15       14       15 1
  16       15       16 1
  17       16       17 1
  18       17        2 am
  19       17       13 1
  20       13       18 1
  21        3       19 1
  22        3       20 1
  23        4       21 1
  24        4       22 1
  25        9       23 1
  26       10       24 1
  27       12       25 1
  28       14       26 1
  29       14       27 1
  30       15       28 1
  31       15       29 1
  32       16       30 1
  33       16       31 1

@<TRIPOS>MOLECULE

  31   33
SMALL
USER_CHARGES
@<TRIPOS>ATOM
   1 O1          -0.9536    -2.3948    -0.4856 O.2          1    LIG   0.0000
   2 C2          -0.4948    -1.2667    -0.4073 C.2          1    LIG   0.0000
   3 C3           0.9970    -1.1133    -0.1460 C.3          1    LIG   0.0000
   4 C4           1.1428    -0.0020     0.8828 C.3          1    LIG   0.0000
   5 N5           0.4148     1.2287     0.5430 N.am         1    LIG   0.0000
   6 C6           0.8274     2.4111     1.1693 C.2          1    LIG   0.0000
   7 O7           1.7462     2.3924     1.9408 O.2          1    LIG   0.0000
   8 C8           0.1444     3.6580     0.8855 C.2          1    LIG   0.0000
   9 C9          -0.5264     4.4711     1.8391 C.2          1    LIG   0.0000
  10 C10         -1.1070     5.6089     1.3631 C.2          1    LIG   0.0000
  11 S11         -0.7638     5.5854    -0.3061 S.3          1    LIG   0.0000
  12 C12          0.1179     4.1322    -0.3913 C.2          1    LIG   0.0000
  13 C13         -0.7053     1.1877    -0.4124 C.3          1    LIG   0.0000
  14 C14         -1.8749     1.9976     0.1135 C.3          1    LIG   0.0000
  15 C15         -3.0344     1.4746    -0.7016 C.3          1    LIG   0.0000
  16 C16         -2.7403    -0.0056    -0.8183 C.3          1    LIG   0.0000
  17 N17         -1.3050    -0.1356    -0.5463 N.am         1    LIG   0.0000
  18 H           -0.4154     1.5320    -1.3055 H            1    LIG   0.0000
  19 H            1.4721    -0.8667    -0.9907 H            1    LIG   0.0000
  20 H            1.3748    -1.9672     0.2118 H            1    LIG   0.0000
  21 H            0.7990    -0.3385     1.7595 H            1    LIG   0.0000
  22 H            2.1138     0.2210     0.9690 H            1    LIG   0.0000
  23 H           -0.5701     4.2220     2.8066 H            1    LIG   0.0000
  24 H           -1.6173     6.2993     1.8759 H            1    LIG   0.0000
  25 H            0.5279     3.7163    -1.2031 H            1    LIG   0.0000
  26 H           -1.7359     2.9754    -0.0432 H            1    LIG   0.0000
  27 H           -2.0172     1.8334     1.0896 H            1    LIG   0.0000
  28 H           -3.9025     1.6311    -0.2306 H            1    LIG   0.0000
  29 H           -3.0618     1.9064    -1.6032 H            1    LIG   0.0000
  30 H           -3.2724    -0.5227    -0.1479 H            1    LIG   0.0000
  31 H           -2.9539    -0.3340    -1.7384 H            1    LIG   0.0000
@<TRIPOS>BOND
   1        1        2 2
   2        2        3 1
   3        3        4 1
   4        4        5 1
   5        5        6 am
   6        6        7 2
   7        6        8 1
   8        8        9 1
   9        9       10 2
  10       10       11 1
  11       11       12 1
  12       12        8 2
  13        5       13 1
  14       13       14 1
  15       14       15 1
  16       15       16 1
  17       16       17 1
  18       17        2 am
  19       17       13 1
  20       13       18 1
  21        3       19 1
  22        3       20 1
  23        4       21 1
  24        4       22 1
  25        9       23 1
  26       10       24 1
  27       12       25 1
  28       14       26 1
  29       14       27 1
  30       15       28 1
  31       15       29 1
  32       16       30 1
  33       16       31 1

@<TRIPOS>MOLECULE

  31   33
SMALL
USER_CHARGES
@<TRIPOS>ATOM
   1 O1          -0.9536    -2.3948    -0.4856 O.2          1    LIG   0.0000
   2 C2          -0.4948    -1.2667    -0.4073 C.2          1    LIG   0.0000
   3 C3           0.9970    -1.1133    -0.1460 C.3          1    LIG   0.0000
   4 C4           1.1428    -0.0020     0.8828 C.3          1    LIG   0.0000
   5 N5           0.4148     1.2287     0.5430 N.am         1    LIG   0.0000
   6 C6           0.8274     2.4111     1.1693 C.2          1    LIG   0.0000
   7 O7           1.7462     2.3924     1.9408 O.2          1    LIG   0.0000
   8 C8           0.1444     3.6580     0.8855 C.2          1    LIG   0.0000
   9 C9           0.0345     4.2705    -0.3925 C.2          1    LIG   0.0000
  10 C10         -0.6524     5.4469    -0.4432 C.2          1    LIG   0.0000
  11 S11         -1.1320     5.7195     1.1694 S.3          1    LIG   0.0000
  12 C12         -0.4605     4.3368     1.8999 C.2          1    LIG   0.0000
  13 C13         -0.7053     1.1877    -0.4124 C.3          1    LIG   0.0000
  14 C14         -1.8749     1.9976     0.1135 C.3          1    LIG   0.0000
  15 C15         -3.0344     1.4746    -0.7016 C.3          1    LIG   0.0000
  16 C16         -2.7403    -0.0056    -0.8183 C.3          1    LIG   0.0000
  17 N17         -1.3050    -0.1356    -0.5463 N.am         1    LIG   0.0000
  18 H           -0.4154     1.5320    -1.3055 H            1    LIG   0.0000
  19 H            1.4721    -0.8667    -0.9907 H            1    LIG   0.0000
  20 H            1.3748    -1.9672     0.2118 H            1    LIG   0.0000
  21 H            0.7990    -0.3385     1.7595 H            1    LIG   0.0000
  22 H            2.1138     0.2210     0.9690 H            1    LIG   0.0000
  23 H            0.4391     3.8607    -1.2100 H            1    LIG   0.0000
  24 H           -0.8334     6.0188    -1.2432 H            1    LIG   0.0000
  25 H           -0.5012     4.0785     2.8651 H            1    LIG   0.0000
  26 H           -1.7359     2.9754    -0.0432 H            1    LIG   0.0000
  27 H           -2.0172     1.8334     1.0896 H            1    LIG   0.0000
  28 H           -3.9025     1.6311    -0.2306 H            1    LIG   0.0000
  29 H           -3.0618     1.9064    -1.6032 H            1    LIG   0.0000
  30 H           -3.2724    -0.5227    -0.1479 H            1    LIG   0.0000
  31 H           -2.9539    -0.3340    -1.7384 H            1    LIG   0.0000
@<TRIPOS>BOND
   1        1        2 2
   2        2        3 1
   3        3        4 1
   4        4        5 1
   5        5        6 am
   6        6        7 2
   7        6        8 1
   8        8        9 1
   9        9       10 2
  10       10       11 1
  11       11       12 1
  12       12        8 2
  13        5       13 1
  14       13       14 1
  15       14       15 1
  16       15       16 1
  17       16       17 1
  18       17        2 am
  19       17       13 1
  20       13       18 1
  21        3       19 1
  22        3       20 1
  23        4       21 1
  24        4       22 1
  25        9       23 1
  26       10       24 1
  27       12       25 1
  28       14       26 1
  29       14       27 1
  30       15       28 1
  31       15       29 1
  32       16       30 1
  33       16       31 1

@<TRIPOS>MOLECULE

  31   33
SMALL
USER_CHARGES
@<TRIPOS>ATOM
   1 O1          -0.9536    -2.3948    -0.4856 O.2          1    LIG   0.0000
   2 C2          -0.4948    -1.2667    -0.4073 C.2          1    LIG   0.0000
   3 C3           0.9970    -1.1133    -0.1460 C.3          1    LIG   0.0000
   4 C4           1.1428    -0.0020     0.8828 C.3          1    LIG   0.0000
   5 N5           0.4148     1.2287     0.5430 N.am         1    LIG   0.0000
   6 C6           0.8274     2.4111     1.1693 C.2          1    LIG   0.0000
   7 O7           1.9968     2.6334     1.3208 O.2          1    LIG   0.0000
   8 C8          -0.1583     3.3669     1.6346 C.2          1    LIG   0.0000
   9 C9          -1.1715     3.1100     2.5979 C.2          1    LIG   0.0000
  10 C10         -2.0007     4.1500     2.8966 C.2          1    LIG   0.0000
  11 S11         -1.4386     5.4263     1.9169 S.3          1    LIG   0.0000
  12 C12         -0.1513     4.6342     1.1347 C.2          1    LIG   0.0000
  13 C13         -0.7053     1.1877    -0.4124 C.3          1    LIG   0.0000
  14 C14         -1.8749     1.9976     0.1135 C.3          1    LIG   0.0000
  15 C15         -3.0344     1.4746    -0.7016 C.3          1    LIG   0.0000
  16 C16         -2.7403    -0.0056    -0.8183 C.3          1    LIG   0.0000
  17 N17         -1.3050    -0.1356    -0.5463 N.am         1    LIG   0.0000
  18 H           -0.4154     1.5320    -1.3055 H            1    LIG   0.0000
  19 H            1.4721    -0.8667    -0.9907 H            1    LIG   0.0000
  20 H            1.3748    -1.9672     0.2118 H            1    LIG   0.0000
  21 H            0.7990    -0.3385     1.7595 H            1    LIG   0.0000
  22 H            2.1138     0.2210     0.9690 H            1    LIG   0.0000
  23 H           -1.2707     2.2150     3.0328 H            1    LIG   0.0000
  24 H           -2.7640     4.1614     3.5426 H            1    LIG   0.0000
  25 H            0.4749     5.0163     0.4551 H            1    LIG   0.0000
  26 H           -1.7359     2.9754    -0.0432 H            1    LIG   0.0000
  27 H           -2.0172     1.8334     1.0896 H            1    LIG   0.0000
  28 H           -3.9025     1.6311    -0.2306 H            1    LIG   0.0000
  29 H           -3.0618     1.9064    -1.6032 H            1    LIG   0.0000
  30 H           -3.2724    -0.5227    -0.1479 H            1    LIG   0.0000
  31 H           -2.9539    -0.3340    -1.7384 H            1    LIG   0.0000
@<TRIPOS>BOND
   1        1        2 2
   2        2        3 1
   3        3        4 1
   4        4        5 1
   5        5        6 am
   6        6        7 2
   7        6        8 1
   8        8        9 1
   9        9       10 2
  10       10       11 1
  11       11       12 1
  12       12        8 2
  13        5       13 1
  14       13       14 1
  15       14       15 1
  16       15       16 1
  17       16       17 1
  18       17        2 am
  19       17       13 1
  20       13       18 1
  21        3       19 1
  22        3       20 1
  23        4       21 1
  24        4       22 1
  25        9       23 1
  26       10       24 1
  27       12       25 1
  28       14       26 1
  29       14       27 1
  30       15       28 1
  31       15       29 1
  32       16       30 1
  33       16       31 1

@<TRIPOS>MOLECULE

  31   33
SMALL
USER_CHARGES
@<TRIPOS>ATOM
   1 O1          -0.9536    -2.3948    -0.4856 O.2          1    LIG   0.0000
   2 C2          -0.4948    -1.2667    -0.4073 C.2          1    LIG   0.0000
   3 C3           0.9970    -1.1133    -0.1460 C.3          1    LIG   0.0000
   4 C4           1.1428    -0.0020     0.8828 C.3          1    LIG   0.0000
   5 N5           0.4148     1.2287     0.5430 N.am         1    LIG   0.0000
   6 C6           0.8274     2.4111     1.1693 C.2          1    LIG   0.0000
   7 O7           1.9968     2.6334     1.3208 O.2          1    LIG   0.0000
   8 C8          -0.1583     3.3669     1.6346 C.2          1    LIG   0.0000
   9 C9          -0.2720     4.7166     1.2034 C.2          1    LIG   0.0000
  10 C10         -1.2722     5.4506     1.7683 C.2          1    LIG   0.0000
  11 S11         -2.0312     4.3653     2.8409 S.3          1    LIG   0.0000
  12 C12         -1.0767     2.9835     2.5648 C.2          1    LIG   0.0000
  13 C13         -0.7053     1.1877    -0.4124 C.3          1    LIG   0.0000
  14 C14         -1.8749     1.9976     0.1135 C.3          1    LIG   0.0000
  15 C15         -3.0344     1.4746    -0.7016 C.3          1    LIG   0.0000
  16 C16         -2.7403    -0.0056    -0.8183 C.3          1    LIG   0.0000
  17 N17         -1.3050    -0.1356    -0.5463 N.am         1    LIG   0.0000
  18 H           -0.4154     1.5320    -1.3055 H            1    LIG   0.0000
  19 H            1.4721    -0.8667    -0.9907 H            1    LIG   0.0000
  20 H            1.3748    -1.9672     0.2118 H            1    LIG   0.0000
  21 H            0.7990    -0.3385     1.7595 H            1    LIG   0.0000
  22 H            2.1138     0.2210     0.9690 H            1    LIG   0.0000
  23 H            0.3481     5.1065     0.5226 H            1    LIG   0.0000
  24 H           -1.5068     6.4068     1.5934 H            1    LIG   0.0000
  25 H           -1.1700     2.0846     2.9928 H            1    LIG   0.0000
  26 H           -1.7359     2.9754    -0.0432 H            1    LIG   0.0000
  27 H           -2.0172     1.8334     1.0896 H            1    LIG   0.0000
  28 H           -3.9025     1.6311    -0.2306 H            1    LIG   0.0000
  29 H           -3.0618     1.9064    -1.6032 H            1    LIG   0.0000
  30 H           -3.2724    -0.5227    -0.1479 H            1    LIG   0.0000
  31 H           -2.9539    -0.3340    -1.7384 H            1    LIG   0.0000
@<TRIPOS>BOND
   1        1        2 2
   2        2        3 1
   3        3        4 1
   4        4        5 1
   5        5        6 am
   6        6        7 2
   7        6        8 1
   8        8        9 1
   9        9       10 2
  10       10       11 1
  11       11       12 1
  12       12        8 2
  13        5       13 1
  14       13       14 1
  15       14       15 1
  16       15       16 1
  17       16       17 1
  18       17        2 am
  19       17       13 1
  20       13       18 1
  21        3       19 1
  22        3       20 1
  23        4       21 1
  24        4       22 1
  25        9       23 1
  26       10       24 1
  27       12       25 1
  28       14       26 1
  29       14       27 1
  30       15       28 1
  31       15       29 1
  32       16       30 1
  33       16       31 1

@<TRIPOS>MOLECULE

  31   33
SMALL
USER_CHARGES
@<TRIPOS>ATOM
   1 O1          -0.7357    -2.5619    -0.0977 O.2          1    LIG   0.0000
   2 C2          -0.4355    -1.3748    -0.0638 C.2          1    LIG   0.0000
   3 C3          -0.3857    -0.6892     1.2931 C.3          1    LIG   0.0000
   4 C4           0.3564     0.6380     1.2866 C.3          1    LIG   0.0000
   5 N5           0.0987     1.3752     0.0415 N.am         1    LIG   0.0000
   6 C6          -0.2620     2.7191     0.1866 C.2          1    LIG   0.0000
   7 O7          -0.9634     3.2440    -0.6334 O.2          1    LIG   0.0000
   8 C8           0.2117     3.4776     1.3276 C.2          1    LIG   0.0000
   9 C9           1.5738     3.7198     1.6541 C.2          1    LIG   0.0000
  10 C10          1.8054     4.4599     2.7752 C.2          1    LIG   0.0000
  11 S11          0.2481     4.8162     3.3689 S.3          1    LIG   0.0000
  12 C12         -0.6900     4.0261     2.1889 C.2          1    LIG   0.0000
  13 C13          0.2434     0.7196    -1.2687 C.3          1    LIG   0.0000
  14 C14         -0.4401     1.2238    -2.5108 C.3          1    LIG   0.0000
  15 C15         -0.2041     0.1075    -3.5063 C.3          1    LIG   0.0000
  16 C16         -0.2164    -1.1429    -2.6527 C.3          1    LIG   0.0000
  17 N17         -0.1575    -0.6835    -1.2542 N.am         1    LIG   0.0000
  18 H            1.2225     0.7241    -1.4722 H            1    LIG   0.0000
  19 H            0.0705    -1.3017     1.9386 H            1    LIG   0.0000
  20 H           -1.3240    -0.5237     1.5968 H            1    LIG   0.0000
  21 H            0.0497     1.1887     2.0629 H            1    LIG   0.0000
  22 H            1.3380     0.4650     1.3678 H            1    LIG   0.0000
  23 H            2.3215     3.3664     1.0919 H            1    LIG   0.0000
  24 H            2.6871     4.7315     3.1609 H            1    LIG   0.0000
  25 H           -1.6875     3.9754     2.1387 H            1    LIG   0.0000
  26 H           -0.0284     2.0791    -2.8256 H            1    LIG   0.0000
  27 H           -1.4175     1.3630    -2.3519 H            1    LIG   0.0000
  28 H           -0.9331     0.0796    -4.1902 H            1    LIG   0.0000
  29 H            0.6782     0.2183    -3.9638 H            1    LIG   0.0000
  30 H           -1.0551    -1.6635    -2.8120 H            1    LIG   0.0000
  31 H            0.5762    -1.7149    -2.8638 H            1    LIG   0.0000
@<TRIPOS>BOND
   1        1        2 2
   2        2        3 1
   3        3        4 1
   4        4        5 1
   5        5        6 am
   6        6        7 2
   7        6        8 1
   8        8        9 1
   9        9       10 2
  10       10       11 1
  11       11       12 1
  12       12        8 2
  13        5       13 1
  14       13       14 1
  15       14       15 1
  16       15       16 1
  17       16       17 1
  18       17        2 am
  19       17       13 1
  20       13       18 1
  21        3       19 1
  22        3       20 1
  23        4       21 1
  24        4       22 1
  25        9       23 1
  26       10       24 1
  27       12       25 1
  28       14       26 1
  29       14       27 1
  30       15       28 1
  31       15       29 1
  32       16       30 1
  33       16       31 1

@<TRIPOS>MOLECULE

  31   33
SMALL
USER_CHARGES
@<TRIPOS>ATOM
   1 O1          -0.7357    -2.5619    -0.0977 O.2          1    LIG   0.0000
   2 C2          -0.4355    -1.3748    -0.0638 C.2          1    LIG   0.0000
   3 C3          -0.3857    -0.6892     1.2931 C.3          1    LIG   0.0000
   4 C4           0.3564     0.6380     1.2866 C.3          1    LIG   0.0000
   5 N5           0.0987     1.3752     0.0415 N.am         1    LIG   0.0000
   6 C6          -0.2620     2.7191     0.1866 C.2          1    LIG   0.0000
   7 O7          -0.9634     3.2440    -0.6334 O.2          1    LIG   0.0000
   8 C8           0.2117     3.4776     1.3276 C.2          1    LIG   0.0000
   9 C9          -0.6088     4.1027     2.3057 C.2          1    LIG   0.0000
  10 C10          0.0387     4.7704     3.3022 C.2          1    LIG   0.0000
  11 S11          1.6907     4.5656     2.9365 S.3          1    LIG   0.0000
  12 C12          1.5514     3.6305     1.5214 C.2          1    LIG   0.0000
  13 C13          0.2434     0.7196    -1.2687 C.3          1    LIG   0.0000
  14 C14         -0.4401     1.2238    -2.5108 C.3          1    LIG   0.0000
  15 C15         -0.2041     0.1075    -3.5063 C.3          1    LIG   0.0000
  16 C16         -0.2164    -1.1429    -2.6527 C.3          1    LIG   0.0000
  17 N17         -0.1575    -0.6835    -1.2542 N.am         1    LIG   0.0000
  18 H            1.2225     0.7241    -1.4722 H            1    LIG   0.0000
  19 H            0.0705    -1.3017     1.9386 H            1    LIG   0.0000
  20 H           -1.3240    -0.5237     1.5968 H            1    LIG   0.0000
  21 H            0.0497     1.1887     2.0629 H            1    LIG   0.0000
  22 H            1.3380     0.4650     1.3678 H            1    LIG   0.0000
  23 H           -1.6068     4.0552     2.2649 H            1    LIG   0.0000
  24 H           -0.3635     5.2666     4.0717 H            1    LIG   0.0000
  25 H            2.2928     3.2711     0.9546 H            1    LIG   0.0000
  26 H           -0.0284     2.0791    -2.8256 H            1    LIG   0.0000
  27 H           -1.4175     1.3630    -2.3519 H            1    LIG   0.0000
  28 H           -0.9331     0.0796    -4.1902 H            1    LIG   0.0000
  29 H            0.6782     0.2183    -3.9638 H            1    LIG   0.0000
  30 H           -1.0551    -1.6635    -2.8120 H            1    LIG   0.0000
  31 H            0.5762    -1.7149    -2.8638 H            1    LIG   0.0000
@<TRIPOS>BOND
   1        1        2 2
   2        2        3 1
   3        3        4 1
   4        4        5 1
   5        5        6 am
   6        6        7 2
   7        6        8 1
   8        8        9 1
   9        9       10 2
  10       10       11 1
  11       11       12 1
  12       12        8 2
  13        5       13 1
  14       13       14 1
  15       14       15 1
  16       15       16 1
  17       16       17 1
  18       17        2 am
  19       17       13 1
  20       13       18 1
  21        3       19 1
  22        3       20 1
  23        4       21 1
  24        4       22 1
  25        9       23 1
  26       10       24 1
  27       12       25 1
  28       14       26 1
  29       14       27 1
  30       15       28 1
  31       15       29 1
  32       16       30 1
  33       16       31 1

@<TRIPOS>MOLECULE

  31   33
SMALL
USER_CHARGES
@<TRIPOS>ATOM
   1 O1          -0.6694    -2.5552    -0.1218 O.2          1    LIG   0.0000
   2 C2          -0.3828    -1.3666    -0.1017 C.2          1    LIG   0.0000
   3 C3          -0.2983    -0.6801     1.2524 C.3          1    LIG   0.0000
   4 C4           0.5504     0.5790     1.1849 C.3          1    LIG   0.0000
   5 N5           0.0734     1.4052     0.0657 N.am         1    LIG   0.0000
   6 C6          -0.4396     2.7010     0.2495 C.2          1    LIG   0.0000
   7 O7          -0.2974     3.5297    -0.6067 O.2          1    LIG   0.0000
   8 C8          -1.1405     3.0363     1.4735 C.2          1    LIG   0.0000
   9 C9          -2.3221     2.4066     1.9509 C.2          1    LIG   0.0000
  10 C10         -2.8238     2.8745     3.1289 C.2          1    LIG   0.0000
  11 S11         -1.7462     4.1164     3.5773 S.3          1    LIG   0.0000
  12 C12         -0.6618     4.0337     2.2682 C.2          1    LIG   0.0000
  13 C13          0.2218     0.7373    -1.2381 C.3          1    LIG   0.0000
  14 C14         -0.6514     1.2418    -2.3641 C.3          1    LIG   0.0000
  15 C15         -0.5180     0.2162    -3.4690 C.3          1    LIG   0.0000
  16 C16         -0.2214    -1.0666    -2.7157 C.3          1    LIG   0.0000
  17 N17         -0.1528    -0.6795    -1.3077 N.am         1    LIG   0.0000
  18 H            1.1766     0.8209    -1.5235 H            1    LIG   0.0000
  19 H            0.1087    -1.3117     1.9123 H            1    LIG   0.0000
  20 H           -1.2207    -0.4349     1.5508 H            1    LIG   0.0000
  21 H            0.4653     1.0892     2.0408 H            1    LIG   0.0000
  22 H            1.5083     0.3324     1.0377 H            1    LIG   0.0000
  23 H           -2.7614     1.6610     1.4498 H            1    LIG   0.0000
  24 H           -3.6378     2.5608     3.6179 H            1    LIG   0.0000
  25 H            0.1511     4.5958     2.1155 H            1    LIG   0.0000
  26 H           -0.3347     2.1369    -2.6779 H            1    LIG   0.0000
  27 H           -1.6029     1.3111    -2.0644 H            1    LIG   0.0000
  28 H           -1.3678     0.1379    -3.9903 H            1    LIG   0.0000
  29 H            0.2321     0.4507    -4.0875 H            1    LIG   0.0000
  30 H           -0.9515    -1.7345    -2.8603 H            1    LIG   0.0000
  31 H            0.6500    -1.4552    -3.0151 H            1    LIG   0.0000
@<TRIPOS>BOND
   1        1        2 2
   2        2        3 1
   3        3        4 1
   4        4        5 1
   5        5        6 am
   6        6        7 2
   7        6        8 1
   8        8        9 1
   9        9       10 2
  10       10       11 1
  11       11       12 1
  12       12        8 2
  13        5       13 1
  14       13       14 1
  15       14       15 1
  16       15       16 1
  17       16       17 1
  18       17        2 am
  19       17       13 1
  20       13       18 1
  21        3       19 1
  22        3       20 1
  23        4       21 1
  24        4       22 1
  25        9       23 1
  26       10       24 1
  27       12       25 1
  28       14       26 1
  29       14       27 1
  30       15       28 1
  31       15       29 1
  32       16       30 1
  33       16       31 1

@<TRIPOS>MOLECULE

  31   33
SMALL
USER_CHARGES
@<TRIPOS>ATOM
   1 O1          -1.0027    -2.3658    -0.1681 O.2          1    LIG   0.0000
   2 C2          -0.5030    -1.2569    -0.2278 C.2          1    LIG   0.0000
   3 C3           1.0041    -1.0951    -0.1392 C.3          1    LIG   0.0000
   4 C4           1.2111     0.0463     0.8398 C.3          1    LIG   0.0000
   5 N5           0.4281     1.2520     0.5257 N.am         1    LIG   0.0000
   6 C6           0.7371     2.4243     1.2340 C.2          1    LIG   0.0000
   7 O7          -0.1156     3.2431     1.4402 O.2          1    LIG   0.0000
   8 C8           2.0863     2.6455     1.7162 C.2          1    LIG   0.0000
   9 C9           3.2747     2.1612     1.1049 C.2          1    LIG   0.0000
  10 C10          4.4471     2.4826     1.7215 C.2          1    LIG   0.0000
  11 S11          3.9684     3.4018     3.0746 S.3          1    LIG   0.0000
  12 C12          2.2817     3.3762     2.8492 C.2          1    LIG   0.0000
  13 C13         -0.6230     1.1997    -0.5098 C.3          1    LIG   0.0000
  14 C14         -1.7979     2.1603    -0.5603 C.3          1    LIG   0.0000
  15 C15         -2.8613     1.4245     0.2262 C.3          1    LIG   0.0000
  16 C16         -2.7200     0.0759    -0.4368 C.3          1    LIG   0.0000
  17 N17         -1.2731    -0.0998    -0.3849 N.am         1    LIG   0.0000
  18 H           -0.1710     1.2274    -1.4014 H            1    LIG   0.0000
  19 H            1.3875    -0.8664    -1.0340 H            1    LIG   0.0000
  20 H            1.4295    -1.9336     0.2013 H            1    LIG   0.0000
  21 H            0.9497    -0.2700     1.7517 H            1    LIG   0.0000
  22 H            2.1807     0.2911     0.8371 H            1    LIG   0.0000
  23 H            3.2518     1.6144     0.2679 H            1    LIG   0.0000
  24 H            5.3754     2.2357     1.4437 H            1    LIG   0.0000
  25 H            1.5848     3.8048     3.4242 H            1    LIG   0.0000
  26 H           -2.0923     2.3211    -1.5024 H            1    LIG   0.0000
  27 H           -1.5692     3.0331    -0.1290 H            1    LIG   0.0000
  28 H           -2.6530     1.3895     1.2036 H            1    LIG   0.0000
  29 H           -3.7709     1.8182     0.0932 H            1    LIG   0.0000
  30 H           -3.1966    -0.6385     0.0756 H            1    LIG   0.0000
  31 H           -3.0559     0.0911    -1.3785 H            1    LIG   0.0000
@<TRIPOS>BOND
   1        1        2 2
   2        2        3 1
   3        3        4 1
   4        4        5 1
   5        5        6 am
   6        6        7 2
   7        6        8 1
   8        8        9 1
   9        9       10 2
  10       10       11 1
  11       11       12 1
  12       12        8 2
  13        5       13 1
  14       13       14 1
  15       14       15 1
  16       15       16 1
  17       16       17 1
  18       17        2 am
  19       17       13 1
  20       13       18 1
  21        3       19 1
  22        3       20 1
  23        4       21 1
  24        4       22 1
  25        9       23 1
  26       10       24 1
  27       12       25 1
  28       14       26 1
  29       14       27 1
  30       15       28 1
  31       15       29 1
  32       16       30 1
  33       16       31 1

@<TRIPOS>MOLECULE

  31   33
SMALL
USER_CHARGES
@<TRIPOS>ATOM
   1 O1          -1.0027    -2.3658    -0.1681 O.2          1    LIG   0.0000
   2 C2          -0.5030    -1.2569    -0.2278 C.2          1    LIG   0.0000
   3 C3           1.0041    -1.0951    -0.1392 C.3          1    LIG   0.0000
   4 C4           1.2111     0.0463     0.8398 C.3          1    LIG   0.0000
   5 N5           0.4281     1.2520     0.5257 N.am         1    LIG   0.0000
   6 C6           0.7371     2.4243     1.2340 C.2          1    LIG   0.0000
   7 O7           0.5854     3.4960     0.7158 O.2          1    LIG   0.0000
   8 C8           1.2394     2.3400     2.5913 C.2          1    LIG   0.0000
   9 C9           2.0144     1.2738     3.1234 C.2          1    LIG   0.0000
  10 C10          2.3873     1.3894     4.4294 C.2          1    LIG   0.0000
  11 S11          1.7191     2.8773     4.9238 S.3          1    LIG   0.0000
  12 C12          0.9718     3.3471     3.4687 C.2          1    LIG   0.0000
  13 C13         -0.6230     1.1997    -0.5098 C.3          1    LIG   0.0000
  14 C14         -1.7979     2.1603    -0.5603 C.3          1    LIG   0.0000
  15 C15         -2.8613     1.4245     0.2262 C.3          1    LIG   0.0000
  16 C16         -2.7200     0.0759    -0.4368 C.3          1    LIG   0.0000
  17 N17         -1.2731    -0.0998    -0.3849 N.am         1    LIG   0.0000
  18 H           -0.1710     1.2274    -1.4014 H            1    LIG   0.0000
  19 H            1.3875    -0.8664    -1.0340 H            1    LIG   0.0000
  20 H            1.4295    -1.9336     0.2013 H            1    LIG   0.0000
  21 H            0.9497    -0.2700     1.7517 H            1    LIG   0.0000
  22 H            2.1807     0.2911     0.8371 H            1    LIG   0.0000
  23 H            2.2721     0.4819     2.5697 H            1    LIG   0.0000
  24 H            2.9289     0.7481     4.9730 H            1    LIG   0.0000
  25 H            0.4493     4.1819     3.2953 H            1    LIG   0.0000
  26 H           -2.0923     2.3211    -1.5024 H            1    LIG   0.0000
  27 H           -1.5692     3.0331    -0.1290 H            1    LIG   0.0000
  28 H           -2.6530     1.3895     1.2036 H            1    LIG   0.0000
  29 H           -3.7709     1.8182     0.0932 H            1    LIG   0.0000
  30 H           -3.1966    -0.6385     0.0756 H            1    LIG   0.0000
  31 H           -3.0559     0.0911    -1.3785 H            1    LIG   0.0000
@<TRIPOS>BOND
   1        1        2 2
   2        2        3 1
   3        3        4 1
   4        4        5 1
   5        5        6 am
   6        6        7 2
   7        6        8 1
   8        8        9 1
   9        9       10 2
  10       10       11 1
  11       11       12 1
  12       12        8 2
  13        5       13 1
  14       13       14 1
  15       14       15 1
  16       15       16 1
  17       16       17 1
  18       17        2 am
  19       17       13 1
  20       13       18 1
  21        3       19 1
  22        3       20 1
  23        4       21 1
  24        4       22 1
  25        9       23 1
  26       10       24 1
  27       12       25 1
  28       14       26 1
  29       14       27 1
  30       15       28 1
  31       15       29 1
  32       16       30 1
  33       16       31 1

@<TRIPOS>MOLECULE

  31   33
SMALL
USER_CHARGES
@<TRIPOS>ATOM
   1 O1          -1.0027    -2.3658    -0.1681 O.2          1    LIG   0.0000
   2 C2          -0.5030    -1.2569    -0.2278 C.2          1    LIG   0.0000
   3 C3           1.0041    -1.0951    -0.1392 C.3          1    LIG   0.0000
   4 C4           1.2111     0.0463     0.8398 C.3          1    LIG   0.0000
   5 N5           0.4281     1.2520     0.5257 N.am         1    LIG   0.0000
   6 C6           0.7371     2.4243     1.2340 C.2          1    LIG   0.0000
   7 O7           0.9796     2.3697     2.4080 O.2          1    LIG   0.0000
   8 C8           0.7632     3.7006     0.5470 C.2          1    LIG   0.0000
   9 C9          -0.0500     4.8248     0.8559 C.2          1    LIG   0.0000
  10 C10          0.1318     5.9339     0.0846 C.2          1    LIG   0.0000
  11 S11          1.3513     5.4809    -1.0165 S.3          1    LIG   0.0000
  12 C12          1.6267     3.8860    -0.4902 C.2          1    LIG   0.0000
  13 C13         -0.6230     1.1997    -0.5098 C.3          1    LIG   0.0000
  14 C14         -1.7979     2.1603    -0.5603 C.3          1    LIG   0.0000
  15 C15         -2.8613     1.4245     0.2262 C.3          1    LIG   0.0000
  16 C16         -2.7200     0.0759    -0.4368 C.3          1    LIG   0.0000
  17 N17         -1.2731    -0.0998    -0.3849 N.am         1    LIG   0.0000
  18 H           -0.1710     1.2274    -1.4014 H            1    LIG   0.0000
  19 H            1.3875    -0.8664    -1.0340 H            1    LIG   0.0000
  20 H            1.4295    -1.9336     0.2013 H            1    LIG   0.0000
  21 H            0.9497    -0.2700     1.7517 H            1    LIG   0.0000
  22 H            2.1807     0.2911     0.8371 H            1    LIG   0.0000
  23 H           -0.7192     4.8032     1.5988 H            1    LIG   0.0000
  24 H           -0.3419     6.8122     0.1498 H            1    LIG   0.0000
  25 H            2.2809     3.2274    -0.8619 H            1    LIG   0.0000
  26 H           -2.0923     2.3211    -1.5024 H            1    LIG   0.0000
  27 H           -1.5692     3.0331    -0.1290 H            1    LIG   0.0000
  28 H           -2.6530     1.3895     1.2036 H            1    LIG   0.0000
  29 H           -3.7709     1.8182     0.0932 H            1    LIG   0.0000
  30 H           -3.1966    -0.6385     0.0756 H            1    LIG   0.0000
  31 H           -3.0559     0.0911    -1.3785 H            1    LIG   0.0000
@<TRIPOS>BOND
   1        1        2 2
   2        2        3 1
   3        3        4 1
   4        4        5 1
   5        5        6 am
   6        6        7 2
   7        6        8 1
   8        8        9 1
   9        9       10 2
  10       10       11 1
  11       11       12 1
  12       12        8 2
  13        5       13 1
  14       13       14 1
  15       14       15 1
  16       15       16 1
  17       16       17 1
  18       17        2 am
  19       17       13 1
  20       13       18 1
  21        3       19 1
  22        3       20 1
  23        4       21 1
  24        4       22 1
  25        9       23 1
  26       10       24 1
  27       12       25 1
  28       14       26 1
  29       14       27 1
  30       15       28 1
  31       15       29 1
  32       16       30 1
  33       16       31 1

@<TRIPOS>MOLECULE

  31   33
SMALL
USER_CHARGES
@<TRIPOS>ATOM
   1 O1          -1.0027    -2.3658    -0.1681 O.2          1    LIG   0.0000
   2 C2          -0.5030    -1.2569    -0.2278 C.2          1    LIG   0.0000
   3 C3           1.0041    -1.0951    -0.1392 C.3          1    LIG   0.0000
   4 C4           1.2111     0.0463     0.8398 C.3          1    LIG   0.0000
   5 N5           0.4281     1.2520     0.5257 N.am         1    LIG   0.0000
   6 C6           0.7371     2.4243     1.2340 C.2          1    LIG   0.0000
   7 O7           0.9796     2.3697     2.4080 O.2          1    LIG   0.0000
   8 C8           0.7632     3.7006     0.5470 C.2          1    LIG   0.0000
   9 C9           1.6063     4.0357    -0.5473 C.2          1    LIG   0.0000
  10 C10          1.4729     5.2954    -1.0508 C.2          1    LIG   0.0000
  11 S11          0.2586     6.0035    -0.0870 S.3          1    LIG   0.0000
  12 C12         -0.0761     4.6954     0.9490 C.2          1    LIG   0.0000
  13 C13         -0.6230     1.1997    -0.5098 C.3          1    LIG   0.0000
  14 C14         -1.7979     2.1603    -0.5603 C.3          1    LIG   0.0000
  15 C15         -2.8613     1.4245     0.2262 C.3          1    LIG   0.0000
  16 C16         -2.7200     0.0759    -0.4368 C.3          1    LIG   0.0000
  17 N17         -1.2731    -0.0998    -0.3849 N.am         1    LIG   0.0000
  18 H           -0.1710     1.2274    -1.4014 H            1    LIG   0.0000
  19 H            1.3875    -0.8664    -1.0340 H            1    LIG   0.0000
  20 H            1.4295    -1.9336     0.2013 H            1    LIG   0.0000
  21 H            0.9497    -0.2700     1.7517 H            1    LIG   0.0000
  22 H            2.1807     0.2911     0.8371 H            1    LIG   0.0000
  23 H            2.2616     3.3828    -0.9271 H            1    LIG   0.0000
  24 H            1.9730     5.7093    -1.8115 H            1    LIG   0.0000
  25 H           -0.7445     4.6639     1.6922 H            1    LIG   0.0000
  26 H           -2.0923     2.3211    -1.5024 H            1    LIG   0.0000
  27 H           -1.5692     3.0331    -0.1290 H            1    LIG   0.0000
  28 H           -2.6530     1.3895     1.2036 H            1    LIG   0.0000
  29 H           -3.7709     1.8182     0.0932 H            1    LIG   0.0000
  30 H           -3.1966    -0.6385     0.0756 H            1    LIG   0.0000
  31 H           -3.0559     0.0911    -1.3785 H            1    LIG   0.0000
@<TRIPOS>BOND
   1        1        2 2
   2        2        3 1
   3        3        4 1
   4        4        5 1
   5        5        6 am
   6        6        7 2
   7        6        8 1
   8        8        9 1
   9        9       10 2
  10       10       11 1
  11       11       12 1
  12       12        8 2
  13        5       13 1
  14       13       14 1
  15       14       15 1
  16       15       16 1
  17       16       17 1
  18       17        2 am
  19       17       13 1
  20       13       18 1
  21        3       19 1
  22        3       20 1
  23        4       21 1
  24        4       22 1
  25        9       23 1
  26       10       24 1
  27       12       25 1
  28       14       26 1
  29       14       27 1
  30       15       28 1
  31       15       29 1
  32       16       30 1
  33       16       31 1

