@<TRIPOS>MOLECULE
*****
 31 33 0 0 0
SMALL
USER_CHARGES

@<TRIPOS>ATOM
      1 O1         -0.7357   -2.5619   -0.0977 O.2     1  LIG1        0.0000
      2 C2         -0.4355   -1.3748   -0.0638 C.2     1  LIG1        0.0000
      3 C3         -0.3857   -0.6892    1.2931 C.3     1  LIG1        0.0000
      4 C4          0.3564    0.6380    1.2866 C.3     1  LIG1        0.0000
      5 N5          0.0987    1.3752    0.0415 N.am    1  LIG1        0.0000
      6 C6         -0.2620    2.7191    0.1866 C.2     1  LIG1        0.0000
      7 O7         -0.9634    3.2440   -0.6334 O.2     1  LIG1        0.0000
      8 C8          0.2117    3.4776    1.3276 C.2     1  LIG1        0.0000
      9 C9          1.5738    3.7198    1.6541 C.2     1  LIG1        0.0000
     10 C10         1.8054    4.4599    2.7752 C.2     1  LIG1        0.0000
     11 S11         0.2481    4.8162    3.3689 S.3     1  LIG1        0.0000
     12 C12        -0.6900    4.0261    2.1889 C.2     1  LIG1        0.0000
     13 C13         0.2434    0.7196   -1.2687 C.3     1  LIG1        0.0000
     14 C14        -0.4401    1.2238   -2.5108 C.3     1  LIG1        0.0000
     15 C15        -0.2041    0.1075   -3.5063 C.3     1  LIG1        0.0000
     16 C16        -0.2164   -1.1429   -2.6527 C.3     1  LIG1        0.0000
     17 N17        -0.1575   -0.6835   -1.2542 N.am    1  LIG1        0.0000
     18 H           1.2225    0.7241   -1.4722 H       1  LIG1        0.0000
     19 H           0.0705   -1.3017    1.9386 H       1  LIG1        0.0000
     20 H          -1.3240   -0.5237    1.5968 H       1  LIG1        0.0000
     21 H           0.0497    1.1887    2.0629 H       1  LIG1        0.0000
     22 H           1.3380    0.4650    1.3678 H       1  LIG1        0.0000
     23 H           2.3215    3.3664    1.0919 H       1  LIG1        0.0000
     24 H           2.6871    4.7315    3.1609 H       1  LIG1        0.0000
     25 H          -1.6875    3.9754    2.1387 H       1  LIG1        0.0000
     26 H          -0.0284    2.0791   -2.8256 H       1  LIG1        0.0000
     27 H          -1.4175    1.3630   -2.3519 H       1  LIG1        0.0000
     28 H          -0.9331    0.0796   -4.1902 H       1  LIG1        0.0000
     29 H           0.6782    0.2183   -3.9638 H       1  LIG1        0.0000
     30 H          -1.0551   -1.6635   -2.8120 H       1  LIG1        0.0000
     31 H           0.5762   -1.7149   -2.8638 H       1  LIG1        0.0000
@<TRIPOS>BOND
     1     1     2    2
     2     2     3    1
     3     3     4    1
     4     4     5    1
     5     5     6   am
     6     6     7    2
     7     6     8    1
     8     8     9    1
     9     9    10    2
    10    10    11    1
    11    11    12    1
    12    12     8    2
    13     5    13    1
    14    13    14    1
    15    14    15    1
    16    15    16    1
    17    16    17    1
    18    17     2   am
    19    17    13    1
    20    13    18    1
    21     3    19    1
    22     3    20    1
    23     4    21    1
    24     4    22    1
    25     9    23    1
    26    10    24    1
    27    12    25    1
    28    14    26    1
    29    14    27    1
    30    15    28    1
    31    15    29    1
    32    16    30    1
    33    16    31    1
