@<TRIPOS>MOLECULE
*****
 31 33 0 0 0
SMALL
USER_CHARGES

@<TRIPOS>ATOM
      1 O1         -0.9536   -2.3948   -0.4856 O.2     1  LIG1        0.0000
      2 C2         -0.4948   -1.2667   -0.4073 C.2     1  LIG1        0.0000
      3 C3          0.9970   -1.1133   -0.1460 C.3     1  LIG1        0.0000
      4 C4          1.1428   -0.0020    0.8828 C.3     1  LIG1        0.0000
      5 N5          0.4148    1.2287    0.5430 N.am    1  LIG1        0.0000
      6 C6          0.8274    2.4111    1.1693 C.2     1  LIG1        0.0000
      7 O7          1.9968    2.6334    1.3208 O.2     1  LIG1        0.0000
      8 C8         -0.1583    3.3669    1.6346 C.2     1  LIG1        0.0000
      9 C9         -1.1715    3.1100    2.5979 C.2     1  LIG1        0.0000
     10 C10        -2.0007    4.1500    2.8966 C.2     1  LIG1        0.0000
     11 S11        -1.4386    5.4263    1.9169 S.3     1  LIG1        0.0000
     12 C12        -0.1513    4.6342    1.1347 C.2     1  LIG1        0.0000
     13 C13        -0.7053    1.1877   -0.4124 C.3     1  LIG1        0.0000
     14 C14        -1.8749    1.9976    0.1135 C.3     1  LIG1        0.0000
     15 C15        -3.0344    1.4746   -0.7016 C.3     1  LIG1        0.0000
     16 C16        -2.7403   -0.0056   -0.8183 C.3     1  LIG1        0.0000
     17 N17        -1.3050   -0.1356   -0.5463 N.am    1  LIG1        0.0000
     18 H          -0.4154    1.5320   -1.3055 H       1  LIG1        0.0000
     19 H           1.4721   -0.8667   -0.9907 H       1  LIG1        0.0000
     20 H           1.3748   -1.9672    0.2118 H       1  LIG1        0.0000
     21 H           0.7990   -0.3385    1.7595 H       1  LIG1        0.0000
     22 H           2.1138    0.2210    0.9690 H       1  LIG1        0.0000
     23 H          -1.2707    2.2150    3.0328 H       1  LIG1        0.0000
     24 H          -2.7640    4.1614    3.5426 H       1  LIG1        0.0000
     25 H           0.4749    5.0163    0.4551 H       1  LIG1        0.0000
     26 H          -1.7359    2.9754   -0.0432 H       1  LIG1        0.0000
     27 H          -2.0172    1.8334    1.0896 H       1  LIG1        0.0000
     28 H          -3.9025    1.6311   -0.2306 H       1  LIG1        0.0000
     29 H          -3.0618    1.9064   -1.6032 H       1  LIG1        0.0000
     30 H          -3.2724   -0.5227   -0.1479 H       1  LIG1        0.0000
     31 H          -2.9539   -0.3340   -1.7384 H       1  LIG1        0.0000
@<TRIPOS>BOND
     1     1     2    2
     2     2     3    1
     3     3     4    1
     4     4     5    1
     5     5     6   am
     6     6     7    2
     7     6     8    1
     8     8     9    1
     9     9    10    2
    10    10    11    1
    11    11    12    1
    12    12     8    2
    13     5    13    1
    14    13    14    1
    15    14    15    1
    16    15    16    1
    17    16    17    1
    18    17     2   am
    19    17    13    1
    20    13    18    1
    21     3    19    1
    22     3    20    1
    23     4    21    1
    24     4    22    1
    25     9    23    1
    26    10    24    1
    27    12    25    1
    28    14    26    1
    29    14    27    1
    30    15    28    1
    31    15    29    1
    32    16    30    1
    33    16    31    1
