@<TRIPOS>MOLECULE
*****
 31 33 0 0 0
SMALL
USER_CHARGES

@<TRIPOS>ATOM
      1 O1         -1.0027   -2.3658   -0.1681 O.2     1  LIG1        0.0000
      2 C2         -0.5030   -1.2569   -0.2278 C.2     1  LIG1        0.0000
      3 C3          1.0041   -1.0951   -0.1392 C.3     1  LIG1        0.0000
      4 C4          1.2111    0.0463    0.8398 C.3     1  LIG1        0.0000
      5 N5          0.4281    1.2520    0.5257 N.am    1  LIG1        0.0000
      6 C6          0.7371    2.4243    1.2340 C.2     1  LIG1        0.0000
      7 O7          0.9796    2.3697    2.4080 O.2     1  LIG1        0.0000
      8 C8          0.7632    3.7006    0.5470 C.2     1  LIG1        0.0000
      9 C9          1.6063    4.0357   -0.5473 C.2     1  LIG1        0.0000
     10 C10         1.4729    5.2954   -1.0508 C.2     1  LIG1        0.0000
     11 S11         0.2586    6.0035   -0.0870 S.3     1  LIG1        0.0000
     12 C12        -0.0761    4.6954    0.9490 C.2     1  LIG1        0.0000
     13 C13        -0.6230    1.1997   -0.5098 C.3     1  LIG1        0.0000
     14 C14        -1.7979    2.1603   -0.5603 C.3     1  LIG1        0.0000
     15 C15        -2.8613    1.4245    0.2262 C.3     1  LIG1        0.0000
     16 C16        -2.7200    0.0759   -0.4368 C.3     1  LIG1        0.0000
     17 N17        -1.2731   -0.0998   -0.3849 N.am    1  LIG1        0.0000
     18 H          -0.1710    1.2274   -1.4014 H       1  LIG1        0.0000
     19 H           1.3875   -0.8664   -1.0340 H       1  LIG1        0.0000
     20 H           1.4295   -1.9336    0.2013 H       1  LIG1        0.0000
     21 H           0.9497   -0.2700    1.7517 H       1  LIG1        0.0000
     22 H           2.1807    0.2911    0.8371 H       1  LIG1        0.0000
     23 H           2.2616    3.3828   -0.9271 H       1  LIG1        0.0000
     24 H           1.9730    5.7093   -1.8115 H       1  LIG1        0.0000
     25 H          -0.7445    4.6639    1.6922 H       1  LIG1        0.0000
     26 H          -2.0923    2.3211   -1.5024 H       1  LIG1        0.0000
     27 H          -1.5692    3.0331   -0.1290 H       1  LIG1        0.0000
     28 H          -2.6530    1.3895    1.2036 H       1  LIG1        0.0000
     29 H          -3.7709    1.8182    0.0932 H       1  LIG1        0.0000
     30 H          -3.1966   -0.6385    0.0756 H       1  LIG1        0.0000
     31 H          -3.0559    0.0911   -1.3785 H       1  LIG1        0.0000
@<TRIPOS>BOND
     1     1     2    2
     2     2     3    1
     3     3     4    1
     4     4     5    1
     5     5     6   am
     6     6     7    2
     7     6     8    1
     8     8     9    1
     9     9    10    2
    10    10    11    1
    11    11    12    1
    12    12     8    2
    13     5    13    1
    14    13    14    1
    15    14    15    1
    16    15    16    1
    17    16    17    1
    18    17     2   am
    19    17    13    1
    20    13    18    1
    21     3    19    1
    22     3    20    1
    23     4    21    1
    24     4    22    1
    25     9    23    1
    26    10    24    1
    27    12    25    1
    28    14    26    1
    29    14    27    1
    30    15    28    1
    31    15    29    1
    32    16    30    1
    33    16    31    1
