@<TRIPOS>MOLECULE
*****
 31 33 0 0 0
SMALL
USER_CHARGES

@<TRIPOS>ATOM
      1 O1         -0.6694   -2.5552   -0.1218 O.2     1  LIG1        0.0000
      2 C2         -0.3828   -1.3666   -0.1017 C.2     1  LIG1        0.0000
      3 C3         -0.2983   -0.6801    1.2524 C.3     1  LIG1        0.0000
      4 C4          0.5504    0.5790    1.1849 C.3     1  LIG1        0.0000
      5 N5          0.0734    1.4052    0.0657 N.am    1  LIG1        0.0000
      6 C6         -0.4396    2.7010    0.2495 C.2     1  LIG1        0.0000
      7 O7         -0.2974    3.5297   -0.6067 O.2     1  LIG1        0.0000
      8 C8         -1.1405    3.0363    1.4735 C.2     1  LIG1        0.0000
      9 C9         -2.3221    2.4066    1.9509 C.2     1  LIG1        0.0000
     10 C10        -2.8238    2.8745    3.1289 C.2     1  LIG1        0.0000
     11 S11        -1.7462    4.1164    3.5773 S.3     1  LIG1        0.0000
     12 C12        -0.6618    4.0337    2.2682 C.2     1  LIG1        0.0000
     13 C13         0.2218    0.7373   -1.2381 C.3     1  LIG1        0.0000
     14 C14        -0.6514    1.2418   -2.3641 C.3     1  LIG1        0.0000
     15 C15        -0.5180    0.2162   -3.4690 C.3     1  LIG1        0.0000
     16 C16        -0.2214   -1.0666   -2.7157 C.3     1  LIG1        0.0000
     17 N17        -0.1528   -0.6795   -1.3077 N.am    1  LIG1        0.0000
     18 H           1.1766    0.8209   -1.5235 H       1  LIG1        0.0000
     19 H           0.1087   -1.3117    1.9123 H       1  LIG1        0.0000
     20 H          -1.2207   -0.4349    1.5508 H       1  LIG1        0.0000
     21 H           0.4653    1.0892    2.0408 H       1  LIG1        0.0000
     22 H           1.5083    0.3324    1.0377 H       1  LIG1        0.0000
     23 H          -2.7614    1.6610    1.4498 H       1  LIG1        0.0000
     24 H          -3.6378    2.5608    3.6179 H       1  LIG1        0.0000
     25 H           0.1511    4.5958    2.1155 H       1  LIG1        0.0000
     26 H          -0.3347    2.1369   -2.6779 H       1  LIG1        0.0000
     27 H          -1.6029    1.3111   -2.0644 H       1  LIG1        0.0000
     28 H          -1.3678    0.1379   -3.9903 H       1  LIG1        0.0000
     29 H           0.2321    0.4507   -4.0875 H       1  LIG1        0.0000
     30 H          -0.9515   -1.7345   -2.8603 H       1  LIG1        0.0000
     31 H           0.6500   -1.4552   -3.0151 H       1  LIG1        0.0000
@<TRIPOS>BOND
     1     1     2    2
     2     2     3    1
     3     3     4    1
     4     4     5    1
     5     5     6   am
     6     6     7    2
     7     6     8    1
     8     8     9    1
     9     9    10    2
    10    10    11    1
    11    11    12    1
    12    12     8    2
    13     5    13    1
    14    13    14    1
    15    14    15    1
    16    15    16    1
    17    16    17    1
    18    17     2   am
    19    17    13    1
    20    13    18    1
    21     3    19    1
    22     3    20    1
    23     4    21    1
    24     4    22    1
    25     9    23    1
    26    10    24    1
    27    12    25    1
    28    14    26    1
    29    14    27    1
    30    15    28    1
    31    15    29    1
    32    16    30    1
    33    16    31    1
