@<TRIPOS>MOLECULE

  56   58
SMALL
USER_CHARGES
@<TRIPOS>ATOM
   1 C1           1.4814     7.2148    -1.7583 C.3          1    LIG   0.0000
   2 N2           2.8067     7.6202    -1.2683 N.3          1    LIG   0.0000
   3 S3           2.8549     7.4719     0.3542 S.o2         1    LIG   0.0000
   4 O4           1.8468     8.3148     0.9434 O.2          1    LIG   0.0000
   5 O5           4.1531     7.8690     0.8342 O.2          1    LIG   0.0000
   6 C6           2.5556     5.8157     0.7943 C.ar         1    LIG   0.0000
   7 C7           1.2498     5.3940     1.0235 C.ar         1    LIG   0.0000
   8 C8           1.0155     4.0691     1.3761 C.ar         1    LIG   0.0000
   9 C9           2.0808     3.1823     1.4947 C.ar         1    LIG   0.0000
  10 N10          1.8487     1.8487     1.8487 N.pl3        1    LIG   0.0000
  11 C11          1.0000     1.0000     1.0000 C.3          1    LIG   0.0000
  12 C12         -0.4446     1.4595     1.1077 C.ar         1    LIG   0.0000
  13 C13         -1.2402     1.4857    -0.0329 C.ar         1    LIG   0.0000
  14 C14         -2.5614     1.9085     0.0714 C.ar         1    LIG   0.0000
  15 C15         -3.0716     2.2975     1.3049 C.ar         1    LIG   0.0000
  16 C16         -4.5175     2.7568     1.4080 C.3          1    LIG   0.0000
  17 C17         -4.5889     4.2589     1.1866 C.3          1    LIG   0.0000
  18 C18         -6.0342     4.7181     1.2897 C.3          1    LIG   0.0000
  19 C19         -3.7559     4.9669     2.2427 C.3          1    LIG   0.0000
  20 C20         -2.2678     2.2689     2.4403 C.ar         1    LIG   0.0000
  21 C21         -0.9458     1.8471     2.3461 C.ar         1    LIG   0.0000
  22 C22          1.1075    -0.4429     1.4590 C.2          1    LIG   0.0000
  23 C23          2.2269    -1.0993     1.8710 C.2          1    LIG   0.0000
  24 C24          1.9773    -2.4503     2.2335 C.2          1    LIG   0.0000
  25 C25          0.6920    -2.8911     2.1218 C.2          1    LIG   0.0000
  26 S26         -0.1816    -1.5471     1.5509 S.3          1    LIG   0.0000
  27 C27          3.3809     3.6163     1.2625 C.ar         1    LIG   0.0000
  28 N28          4.4497     2.7206     1.3838 N.2          1    LIG   1.0000
  29 O29          4.2419     1.5687     1.6902 O.co2        1    LIG   0.0000
  30 O30          5.5908     3.1015     1.1807 O.co2        1    LIG  -1.0000
  31 C31          3.6287     4.9385     0.9099 C.ar         1    LIG   0.0000
  32 H            1.3024     1.0708     0.0494 H            1    LIG   0.0000
  33 H            1.4518     7.3058    -2.7537 H            1    LIG   0.0000
  34 H            1.3093     6.2627    -1.5053 H            1    LIG   0.0000
  35 H            0.7814     7.8001    -1.3491 H            1    LIG   0.0000
  36 H            3.5067     7.0349    -1.6774 H            1    LIG   0.0000
  37 H            0.4883     6.0362     0.9356 H            1    LIG   0.0000
  38 H            0.0815     3.7541     1.5444 H            1    LIG   0.0000
  39 H            2.2602     1.4729     2.6791 H            1    LIG   0.0000
  40 H           -0.8671     1.2041    -0.9170 H            1    LIG   0.0000
  41 H           -3.1442     1.9327    -0.7408 H            1    LIG   0.0000
  42 H           -4.8733     2.5364     2.3162 H            1    LIG   0.0000
  43 H           -5.0655     2.2911     0.7132 H            1    LIG   0.0000
  44 H           -4.2331     4.4793     0.2784 H            1    LIG   0.0000
  45 H           -6.0812     5.7063     1.1441 H            1    LIG   0.0000
  46 H           -6.5823     4.2523     0.5949 H            1    LIG   0.0000
  47 H           -6.3900     4.4977     2.1979 H            1    LIG   0.0000
  48 H           -3.8029     5.9551     2.0970 H            1    LIG   0.0000
  49 H           -4.1117     4.7465     3.1509 H            1    LIG   0.0000
  50 H           -2.8050     4.6648     2.1748 H            1    LIG   0.0000
  51 H           -2.6406     2.5517     3.3241 H            1    LIG   0.0000
  52 H           -0.3629     1.8228     3.1583 H            1    LIG   0.0000
  53 H            3.1312    -0.6745     1.9141 H            1    LIG   0.0000
  54 H            2.7101    -3.0497     2.5555 H            1    LIG   0.0000
  55 H            0.3400    -3.8037     2.3297 H            1    LIG   0.0000
  56 H            4.5630     5.2534     0.7424 H            1    LIG   0.0000
@<TRIPOS>BOND
   1        1        2 1
   2        2        3 1
   3        3        4 2
   4        3        5 2
   5        3        6 1
   6        6        7 ar
   7        7        8 ar
   8        8        9 ar
   9        9       10 1
  10       10       11 1
  11       11       12 1
  12       12       13 ar
  13       13       14 ar
  14       14       15 ar
  15       15       16 1
  16       16       17 1
  17       17       18 1
  18       17       19 1
  19       15       20 ar
  20       20       21 ar
  21       21       12 ar
  22       11       22 1
  23       22       23 2
  24       23       24 1
  25       24       25 2
  26       25       26 1
  27       26       22 1
  28        9       27 ar
  29       27       28 1
  30       28       29 ar
  31       28       30 ar
  32       27       31 ar
  33       31        6 ar
  34       11       32 1
  35        1       33 1
  36        1       34 1
  37        1       35 1
  38        2       36 1
  39        7       37 1
  40        8       38 1
  41       10       39 1
  42       13       40 1
  43       14       41 1
  44       16       42 1
  45       16       43 1
  46       17       44 1
  47       18       45 1
  48       18       46 1
  49       18       47 1
  50       19       48 1
  51       19       49 1
  52       19       50 1
  53       20       51 1
  54       21       52 1
  55       23       53 1
  56       24       54 1
  57       25       55 1
  58       31       56 1

@<TRIPOS>MOLECULE

  56   58
SMALL
USER_CHARGES
@<TRIPOS>ATOM
   1 C1           4.2467     7.8306     2.4398 C.3          1    LIG   0.0000
   2 N2           3.0899     8.3582     1.7019 N.3          1    LIG   0.0000
   3 S3           2.8549     7.4719     0.3542 S.o2         1    LIG   0.0000
   4 O4           4.0280     7.5430    -0.4778 O.2          1    LIG   0.0000
   5 O5           1.7217     7.9888    -0.3686 O.2          1    LIG   0.0000
   6 C6           2.5556     5.8157     0.7943 C.ar         1    LIG   0.0000
   7 C7           1.2498     5.3940     1.0235 C.ar         1    LIG   0.0000
   8 C8           1.0155     4.0691     1.3761 C.ar         1    LIG   0.0000
   9 C9           2.0808     3.1823     1.4947 C.ar         1    LIG   0.0000
  10 N10          1.8487     1.8487     1.8487 N.pl3        1    LIG   0.0000
  11 C11          1.0000     1.0000     1.0000 C.3          1    LIG   0.0000
  12 C12         -0.4446     1.4595     1.1077 C.ar         1    LIG   0.0000
  13 C13         -1.2402     1.4857    -0.0329 C.ar         1    LIG   0.0000
  14 C14         -2.5614     1.9085     0.0714 C.ar         1    LIG   0.0000
  15 C15         -3.0716     2.2975     1.3049 C.ar         1    LIG   0.0000
  16 C16         -4.5175     2.7568     1.4080 C.3          1    LIG   0.0000
  17 C17         -4.5889     4.2589     1.1866 C.3          1    LIG   0.0000
  18 C18         -6.0342     4.7181     1.2897 C.3          1    LIG   0.0000
  19 C19         -3.7559     4.9669     2.2427 C.3          1    LIG   0.0000
  20 C20         -2.2678     2.2689     2.4403 C.ar         1    LIG   0.0000
  21 C21         -0.9458     1.8471     2.3461 C.ar         1    LIG   0.0000
  22 C22          1.1075    -0.4429     1.4590 C.2          1    LIG   0.0000
  23 C23          2.2269    -1.0993     1.8710 C.2          1    LIG   0.0000
  24 C24          1.9773    -2.4503     2.2335 C.2          1    LIG   0.0000
  25 C25          0.6920    -2.8911     2.1218 C.2          1    LIG   0.0000
  26 S26         -0.1816    -1.5471     1.5509 S.3          1    LIG   0.0000
  27 C27          3.3809     3.6163     1.2625 C.ar         1    LIG   0.0000
  28 N28          4.4497     2.7206     1.3838 N.2          1    LIG   1.0000
  29 O29          4.2419     1.5687     1.6902 O.co2        1    LIG   0.0000
  30 O30          5.5908     3.1015     1.1807 O.co2        1    LIG  -1.0000
  31 C31          3.6287     4.9385     0.9099 C.ar         1    LIG   0.0000
  32 H            1.3024     1.0708     0.0494 H            1    LIG   0.0000
  33 H            4.3909     8.3743     3.2665 H            1    LIG   0.0000
  34 H            4.0747     6.8785     2.6927 H            1    LIG   0.0000
  35 H            5.0614     7.8800     1.8620 H            1    LIG   0.0000
  36 H            2.2753     8.3088     2.2797 H            1    LIG   0.0000
  37 H            0.4883     6.0362     0.9356 H            1    LIG   0.0000
  38 H            0.0815     3.7541     1.5444 H            1    LIG   0.0000
  39 H            2.2602     1.4729     2.6791 H            1    LIG   0.0000
  40 H           -0.8671     1.2041    -0.9170 H            1    LIG   0.0000
  41 H           -3.1442     1.9327    -0.7408 H            1    LIG   0.0000
  42 H           -4.8733     2.5364     2.3162 H            1    LIG   0.0000
  43 H           -5.0655     2.2911     0.7132 H            1    LIG   0.0000
  44 H           -4.2331     4.4793     0.2784 H            1    LIG   0.0000
  45 H           -6.0812     5.7063     1.1441 H            1    LIG   0.0000
  46 H           -6.5823     4.2523     0.5949 H            1    LIG   0.0000
  47 H           -6.3900     4.4977     2.1979 H            1    LIG   0.0000
  48 H           -3.8029     5.9551     2.0970 H            1    LIG   0.0000
  49 H           -4.1117     4.7465     3.1509 H            1    LIG   0.0000
  50 H           -2.8050     4.6648     2.1748 H            1    LIG   0.0000
  51 H           -2.6406     2.5517     3.3241 H            1    LIG   0.0000
  52 H           -0.3629     1.8228     3.1583 H            1    LIG   0.0000
  53 H            3.1312    -0.6745     1.9141 H            1    LIG   0.0000
  54 H            2.7101    -3.0497     2.5555 H            1    LIG   0.0000
  55 H            0.3400    -3.8037     2.3297 H            1    LIG   0.0000
  56 H            4.5630     5.2534     0.7424 H            1    LIG   0.0000
@<TRIPOS>BOND
   1        1        2 1
   2        2        3 1
   3        3        4 2
   4        3        5 2
   5        3        6 1
   6        6        7 ar
   7        7        8 ar
   8        8        9 ar
   9        9       10 1
  10       10       11 1
  11       11       12 1
  12       12       13 ar
  13       13       14 ar
  14       14       15 ar
  15       15       16 1
  16       16       17 1
  17       17       18 1
  18       17       19 1
  19       15       20 ar
  20       20       21 ar
  21       21       12 ar
  22       11       22 1
  23       22       23 2
  24       23       24 1
  25       24       25 2
  26       25       26 1
  27       26       22 1
  28        9       27 ar
  29       27       28 1
  30       28       29 ar
  31       28       30 ar
  32       27       31 ar
  33       31        6 ar
  34       11       32 1
  35        1       33 1
  36        1       34 1
  37        1       35 1
  38        2       36 1
  39        7       37 1
  40        8       38 1
  41       10       39 1
  42       13       40 1
  43       14       41 1
  44       16       42 1
  45       16       43 1
  46       17       44 1
  47       18       45 1
  48       18       46 1
  49       18       47 1
  50       19       48 1
  51       19       49 1
  52       19       50 1
  53       20       51 1
  54       21       52 1
  55       23       53 1
  56       24       54 1
  57       25       55 1
  58       31       56 1

@<TRIPOS>MOLECULE

  56   58
SMALL
USER_CHARGES
@<TRIPOS>ATOM
   1 C1           5.3186     7.0970     0.3139 C.3          1    LIG   0.0000
   2 N2           4.2826     7.9446     0.9216 N.3          1    LIG   0.0000
   3 S3           2.8164     7.4848     0.3778 S.o2         1    LIG   0.0000
   4 O4           2.7706     7.6236    -1.0548 O.2          1    LIG   0.0000
   5 O5           1.8016     8.3152     0.9731 O.2          1    LIG   0.0000
   6 C6           2.5328     5.8236     0.8088 C.ar         1    LIG   0.0000
   7 C7           2.9206     4.8140    -0.0663 C.ar         1    LIG   0.0000
   8 C8           2.6909     3.4872     0.2821 C.ar         1    LIG   0.0000
   9 C9           2.0808     3.1823     1.4947 C.ar         1    LIG   0.0000
  10 N10          1.8487     1.8487     1.8487 N.pl3        1    LIG   0.0000
  11 C11          1.0000     1.0000     1.0000 C.3          1    LIG   0.0000
  12 C12         -0.4446     1.4595     1.1077 C.ar         1    LIG   0.0000
  13 C13         -1.0106     1.6458     2.3644 C.ar         1    LIG   0.0000
  14 C14         -2.3338     2.0653     2.4568 C.ar         1    LIG   0.0000
  15 C15         -3.0731     2.2936     1.3017 C.ar         1    LIG   0.0000
  16 C16         -4.5182     2.7530     1.4141 C.3          1    LIG   0.0000
  17 C17         -5.4334     1.5403     1.4591 C.3          1    LIG   0.0000
  18 C18         -6.8780     1.9995     1.5714 C.3          1    LIG   0.0000
  19 C19         -5.2581     0.7258     0.1878 C.3          1    LIG   0.0000
  20 C20         -2.4986     2.1036     0.0487 C.ar         1    LIG   0.0000
  21 C21         -1.1762     1.6850    -0.0538 C.ar         1    LIG   0.0000
  22 C22          1.1075    -0.4429     1.4590 C.2          1    LIG   0.0000
  23 C23          2.2269    -1.0993     1.8710 C.2          1    LIG   0.0000
  24 C24          1.9773    -2.4503     2.2335 C.2          1    LIG   0.0000
  25 C25          0.6920    -2.8911     2.1218 C.2          1    LIG   0.0000
  26 S26         -0.1816    -1.5471     1.5509 S.3          1    LIG   0.0000
  27 C27          1.6986     4.2005     2.3605 C.ar         1    LIG   0.0000
  28 N28          1.0843     3.8891     3.5791 N.2          1    LIG   1.0000
  29 O29          0.8866     2.7336     3.8791 O.co2        1    LIG   0.0000
  30 O30          0.7482     4.7826     4.3387 O.co2        1    LIG  -1.0000
  31 C31          1.9220     5.5312     2.0237 C.ar         1    LIG   0.0000
  32 H            1.3024     1.0708     0.0494 H            1    LIG   0.0000
  33 H            6.2181     7.3790     0.6475 H            1    LIG   0.0000
  34 H            5.1555     6.1420     0.5617 H            1    LIG   0.0000
  35 H            5.2868     7.1933    -0.6810 H            1    LIG   0.0000
  36 H            4.3144     7.8482     1.9164 H            1    LIG   0.0000
  37 H            3.3596     5.0397    -0.9360 H            1    LIG   0.0000
  38 H            2.9641     2.7525    -0.3388 H            1    LIG   0.0000
  39 H            2.2602     1.4729     2.6791 H            1    LIG   0.0000
  40 H           -0.4731     1.4803     3.1913 H            1    LIG   0.0000
  41 H           -2.7532     2.2026     3.3542 H            1    LIG   0.0000
  42 H           -4.7512     3.3172     0.6220 H            1    LIG   0.0000
  43 H           -4.6336     3.2889     2.2505 H            1    LIG   0.0000
  44 H           -5.2005     0.9761     2.2512 H            1    LIG   0.0000
  45 H           -7.4801     1.2017     1.6010 H            1    LIG   0.0000
  46 H           -6.9934     2.5354     2.4078 H            1    LIG   0.0000
  47 H           -7.1109     2.5637     0.7792 H            1    LIG   0.0000
  48 H           -5.8602    -0.0721     0.2174 H            1    LIG   0.0000
  49 H           -5.4910     1.2899    -0.6044 H            1    LIG   0.0000
  50 H           -4.3077     0.4236     0.1139 H            1    LIG   0.0000
  51 H           -3.0366     2.2680    -0.7781 H            1    LIG   0.0000
  52 H           -0.7566     1.5478    -0.9512 H            1    LIG   0.0000
  53 H            3.1312    -0.6745     1.9141 H            1    LIG   0.0000
  54 H            2.7101    -3.0497     2.5555 H            1    LIG   0.0000
  55 H            0.3400    -3.8037     2.3297 H            1    LIG   0.0000
  56 H            1.6480     6.2656     2.6446 H            1    LIG   0.0000
@<TRIPOS>BOND
   1        1        2 1
   2        2        3 1
   3        3        4 2
   4        3        5 2
   5        3        6 1
   6        6        7 ar
   7        7        8 ar
   8        8        9 ar
   9        9       10 1
  10       10       11 1
  11       11       12 1
  12       12       13 ar
  13       13       14 ar
  14       14       15 ar
  15       15       16 1
  16       16       17 1
  17       17       18 1
  18       17       19 1
  19       15       20 ar
  20       20       21 ar
  21       21       12 ar
  22       11       22 1
  23       22       23 2
  24       23       24 1
  25       24       25 2
  26       25       26 1
  27       26       22 1
  28        9       27 ar
  29       27       28 1
  30       28       29 ar
  31       28       30 ar
  32       27       31 ar
  33       31        6 ar
  34       11       32 1
  35        1       33 1
  36        1       34 1
  37        1       35 1
  38        2       36 1
  39        7       37 1
  40        8       38 1
  41       10       39 1
  42       13       40 1
  43       14       41 1
  44       16       42 1
  45       16       43 1
  46       17       44 1
  47       18       45 1
  48       18       46 1
  49       18       47 1
  50       19       48 1
  51       19       49 1
  52       19       50 1
  53       20       51 1
  54       21       52 1
  55       23       53 1
  56       24       54 1
  57       25       55 1
  58       31       56 1

@<TRIPOS>MOLECULE

  56   58
SMALL
USER_CHARGES
@<TRIPOS>ATOM
   1 C1           0.3317     7.9746     0.4152 C.3          1    LIG   0.0000
   2 N2           1.5274     8.0629    -0.4353 N.3          1    LIG   0.0000
   3 S3           2.8164     7.4848     0.3778 S.o2         1    LIG   0.0000
   4 O4           3.0187     8.2629     1.5725 O.2          1    LIG   0.0000
   5 O5           3.9877     7.5713    -0.4554 O.2          1    LIG   0.0000
   6 C6           2.5328     5.8236     0.8088 C.ar         1    LIG   0.0000
   7 C7           2.9206     4.8140    -0.0663 C.ar         1    LIG   0.0000
   8 C8           2.6909     3.4872     0.2821 C.ar         1    LIG   0.0000
   9 C9           2.0808     3.1823     1.4947 C.ar         1    LIG   0.0000
  10 N10          1.8487     1.8487     1.8487 N.pl3        1    LIG   0.0000
  11 C11          1.0000     1.0000     1.0000 C.3          1    LIG   0.0000
  12 C12         -0.4446     1.4595     1.1077 C.ar         1    LIG   0.0000
  13 C13         -1.0106     1.6458     2.3644 C.ar         1    LIG   0.0000
  14 C14         -2.3338     2.0653     2.4568 C.ar         1    LIG   0.0000
  15 C15         -3.0731     2.2936     1.3017 C.ar         1    LIG   0.0000
  16 C16         -4.5182     2.7530     1.4141 C.3          1    LIG   0.0000
  17 C17         -5.4334     1.5403     1.4591 C.3          1    LIG   0.0000
  18 C18         -6.8780     1.9995     1.5714 C.3          1    LIG   0.0000
  19 C19         -5.2581     0.7258     0.1878 C.3          1    LIG   0.0000
  20 C20         -2.4986     2.1036     0.0487 C.ar         1    LIG   0.0000
  21 C21         -1.1762     1.6850    -0.0538 C.ar         1    LIG   0.0000
  22 C22          1.1075    -0.4429     1.4590 C.2          1    LIG   0.0000
  23 C23          2.2269    -1.0993     1.8710 C.2          1    LIG   0.0000
  24 C24          1.9773    -2.4503     2.2335 C.2          1    LIG   0.0000
  25 C25          0.6920    -2.8911     2.1218 C.2          1    LIG   0.0000
  26 S26         -0.1816    -1.5471     1.5509 S.3          1    LIG   0.0000
  27 C27          1.6986     4.2005     2.3605 C.ar         1    LIG   0.0000
  28 N28          1.0843     3.8891     3.5791 N.2          1    LIG   1.0000
  29 O29          0.8866     2.7336     3.8791 O.co2        1    LIG   0.0000
  30 O30          0.7482     4.7826     4.3387 O.co2        1    LIG  -1.0000
  31 C31          1.9220     5.5312     2.0237 C.ar         1    LIG   0.0000
  32 H            1.3024     1.0708     0.0494 H            1    LIG   0.0000
  33 H           -0.4592     8.3292    -0.0836 H            1    LIG   0.0000
  34 H            0.1687     7.0196     0.6630 H            1    LIG   0.0000
  35 H            0.4722     8.5149     1.2449 H            1    LIG   0.0000
  36 H            1.3869     7.5225    -1.2650 H            1    LIG   0.0000
  37 H            3.3596     5.0397    -0.9360 H            1    LIG   0.0000
  38 H            2.9641     2.7525    -0.3388 H            1    LIG   0.0000
  39 H            2.2602     1.4729     2.6791 H            1    LIG   0.0000
  40 H           -0.4731     1.4803     3.1913 H            1    LIG   0.0000
  41 H           -2.7532     2.2026     3.3542 H            1    LIG   0.0000
  42 H           -4.7512     3.3172     0.6220 H            1    LIG   0.0000
  43 H           -4.6336     3.2889     2.2505 H            1    LIG   0.0000
  44 H           -5.2005     0.9761     2.2512 H            1    LIG   0.0000
  45 H           -7.4801     1.2017     1.6010 H            1    LIG   0.0000
  46 H           -6.9934     2.5354     2.4078 H            1    LIG   0.0000
  47 H           -7.1109     2.5637     0.7792 H            1    LIG   0.0000
  48 H           -5.8602    -0.0721     0.2174 H            1    LIG   0.0000
  49 H           -5.4910     1.2899    -0.6044 H            1    LIG   0.0000
  50 H           -4.3077     0.4236     0.1139 H            1    LIG   0.0000
  51 H           -3.0366     2.2680    -0.7781 H            1    LIG   0.0000
  52 H           -0.7566     1.5478    -0.9512 H            1    LIG   0.0000
  53 H            3.1312    -0.6745     1.9141 H            1    LIG   0.0000
  54 H            2.7101    -3.0497     2.5555 H            1    LIG   0.0000
  55 H            0.3400    -3.8037     2.3297 H            1    LIG   0.0000
  56 H            1.6480     6.2656     2.6446 H            1    LIG   0.0000
@<TRIPOS>BOND
   1        1        2 1
   2        2        3 1
   3        3        4 2
   4        3        5 2
   5        3        6 1
   6        6        7 ar
   7        7        8 ar
   8        8        9 ar
   9        9       10 1
  10       10       11 1
  11       11       12 1
  12       12       13 ar
  13       13       14 ar
  14       14       15 ar
  15       15       16 1
  16       16       17 1
  17       17       18 1
  18       17       19 1
  19       15       20 ar
  20       20       21 ar
  21       21       12 ar
  22       11       22 1
  23       22       23 2
  24       23       24 1
  25       24       25 2
  26       25       26 1
  27       26       22 1
  28        9       27 ar
  29       27       28 1
  30       28       29 ar
  31       28       30 ar
  32       27       31 ar
  33       31        6 ar
  34       11       32 1
  35        1       33 1
  36        1       34 1
  37        1       35 1
  38        2       36 1
  39        7       37 1
  40        8       38 1
  41       10       39 1
  42       13       40 1
  43       14       41 1
  44       16       42 1
  45       16       43 1
  46       17       44 1
  47       18       45 1
  48       18       46 1
  49       18       47 1
  50       19       48 1
  51       19       49 1
  52       19       50 1
  53       20       51 1
  54       21       52 1
  55       23       53 1
  56       24       54 1
  57       25       55 1
  58       31       56 1

@<TRIPOS>MOLECULE

  56   58
SMALL
USER_CHARGES
@<TRIPOS>ATOM
   1 C1           0.9020     3.9143     7.9131 C.3          1    LIG   0.0000
   2 N2           1.8535     2.9019     8.3935 N.3          1    LIG   0.0000
   3 S3           1.4915     1.4578     7.7297 S.o2         1    LIG   0.0000
   4 O4           0.1549     1.0776     8.1070 O.2          1    LIG   0.0000
   5 O5           2.4235     0.4661     8.2002 O.2          1    LIG   0.0000
   6 C6           1.5941     1.5741     5.9970 C.ar         1    LIG   0.0000
   7 C7           0.4657     1.9349     5.2676 C.ar         1    LIG   0.0000
   8 C8           0.5522     2.0256     3.8824 C.ar         1    LIG   0.0000
   9 C9           1.7579     1.7579     3.2420 C.ar         1    LIG   0.0000
  10 N10          1.8487     1.8487     1.8487 N.pl3        1    LIG   0.0000
  11 C11          1.0000     1.0000     1.0000 C.3          1    LIG   0.0000
  12 C12         -0.4446     1.4595     1.1077 C.ar         1    LIG   0.0000
  13 C13         -1.4610     0.5116     1.1620 C.ar         1    LIG   0.0000
  14 C14         -2.7816     0.9381     1.2592 C.ar         1    LIG   0.0000
  15 C15         -3.0720     2.2971     1.3015 C.ar         1    LIG   0.0000
  16 C16         -4.5188     2.7525     1.4090 C.3          1    LIG   0.0000
  17 C17         -5.0997     2.9277     0.0154 C.3          1    LIG   0.0000
  18 C18         -6.5459     3.3828     0.1228 C.3          1    LIG   0.0000
  19 C19         -4.2948     3.9716    -0.7415 C.3          1    LIG   0.0000
  20 C20         -2.0485     3.2382     1.2456 C.ar         1    LIG   0.0000
  21 C21         -0.7251     2.8214     1.1490 C.ar         1    LIG   0.0000
  22 C22          1.1075    -0.4429     1.4590 C.2          1    LIG   0.0000
  23 C23          1.1601    -0.9025     2.7394 C.2          1    LIG   0.0000
  24 C24          1.2603    -2.3177     2.8183 C.2          1    LIG   0.0000
  25 C25          1.2901    -3.0003     1.6385 C.2          1    LIG   0.0000
  26 S26          1.1842    -1.7995     0.4375 S.3          1    LIG   0.0000
  27 C27          2.8782     1.3989     3.9826 C.ar         1    LIG   0.0000
  28 N28          4.0890     1.1296     3.3338 N.2          1    LIG   1.0000
  29 O29          4.1606     1.2101     2.1286 O.co2        1    LIG   0.0000
  30 O30          5.0721     0.8138     3.9836 O.co2        1    LIG  -1.0000
  31 C31          2.8048     1.3040     5.3681 C.ar         1    LIG   0.0000
  32 H            1.3024     1.0708     0.0494 H            1    LIG   0.0000
  33 H            1.1241     4.8002     8.3204 H            1    LIG   0.0000
  34 H            0.9610     3.9811     6.9171 H            1    LIG   0.0000
  35 H           -0.0262     3.6502     8.1751 H            1    LIG   0.0000
  36 H            2.7817     3.1659     8.1315 H            1    LIG   0.0000
  37 H           -0.3978     2.1270     5.7340 H            1    LIG   0.0000
  38 H           -0.2521     2.2830     3.3468 H            1    LIG   0.0000
  39 H            2.4909     2.4909     1.4303 H            1    LIG   0.0000
  40 H           -1.2452    -0.4643     1.1316 H            1    LIG   0.0000
  41 H           -3.5221     0.2672     1.2985 H            1    LIG   0.0000
  42 H           -4.5586     3.6235     1.8986 H            1    LIG   0.0000
  43 H           -5.0483     2.0657     1.9069 H            1    LIG   0.0000
  44 H           -5.0599     2.0566    -0.4743 H            1    LIG   0.0000
  45 H           -6.9281     3.4981    -0.7941 H            1    LIG   0.0000
  46 H           -7.0754     2.6960     0.6207 H            1    LIG   0.0000
  47 H           -6.5857     4.2539     0.6124 H            1    LIG   0.0000
  48 H           -4.6770     4.0868    -1.6584 H            1    LIG   0.0000
  49 H           -4.3346     4.8426    -0.2519 H            1    LIG   0.0000
  50 H           -3.3433     3.6721    -0.8122 H            1    LIG   0.0000
  51 H           -2.2645     4.2141     1.2748 H            1    LIG   0.0000
  52 H            0.0155     3.4923     1.1098 H            1    LIG   0.0000
  53 H            1.1312    -0.3059     3.5414 H            1    LIG   0.0000
  54 H            1.3067    -2.7908     3.6981 H            1    LIG   0.0000
  55 H            1.3591    -3.9893     1.5076 H            1    LIG   0.0000
  56 H            3.6092     1.0458     5.9032 H            1    LIG   0.0000
@<TRIPOS>BOND
   1        1        2 1
   2        2        3 1
   3        3        4 2
   4        3        5 2
   5        3        6 1
   6        6        7 ar
   7        7        8 ar
   8        8        9 ar
   9        9       10 1
  10       10       11 1
  11       11       12 1
  12       12       13 ar
  13       13       14 ar
  14       14       15 ar
  15       15       16 1
  16       16       17 1
  17       17       18 1
  18       17       19 1
  19       15       20 ar
  20       20       21 ar
  21       21       12 ar
  22       11       22 1
  23       22       23 2
  24       23       24 1
  25       24       25 2
  26       25       26 1
  27       26       22 1
  28        9       27 ar
  29       27       28 1
  30       28       29 ar
  31       28       30 ar
  32       27       31 ar
  33       31        6 ar
  34       11       32 1
  35        1       33 1
  36        1       34 1
  37        1       35 1
  38        2       36 1
  39        7       37 1
  40        8       38 1
  41       10       39 1
  42       13       40 1
  43       14       41 1
  44       16       42 1
  45       16       43 1
  46       17       44 1
  47       18       45 1
  48       18       46 1
  49       18       47 1
  50       19       48 1
  51       19       49 1
  52       19       50 1
  53       20       51 1
  54       21       52 1
  55       23       53 1
  56       24       54 1
  57       25       55 1
  58       31       56 1

@<TRIPOS>MOLECULE

  56   58
SMALL
USER_CHARGES
@<TRIPOS>ATOM
   1 C1           0.9020     3.9143     7.9131 C.3          1    LIG   0.0000
   2 N2           1.8535     2.9019     8.3935 N.3          1    LIG   0.0000
   3 S3           1.4915     1.4578     7.7297 S.o2         1    LIG   0.0000
   4 O4           0.1549     1.0776     8.1070 O.2          1    LIG   0.0000
   5 O5           2.4235     0.4661     8.2002 O.2          1    LIG   0.0000
   6 C6           1.5941     1.5741     5.9970 C.ar         1    LIG   0.0000
   7 C7           0.4657     1.9349     5.2676 C.ar         1    LIG   0.0000
   8 C8           0.5522     2.0256     3.8824 C.ar         1    LIG   0.0000
   9 C9           1.7579     1.7579     3.2420 C.ar         1    LIG   0.0000
  10 N10          1.8487     1.8487     1.8487 N.pl3        1    LIG   0.0000
  11 C11          1.0000     1.0000     1.0000 C.3          1    LIG   0.0000
  12 C12         -0.4446     1.4595     1.1077 C.ar         1    LIG   0.0000
  13 C13         -0.7475     2.8067     0.9404 C.ar         1    LIG   0.0000
  14 C14         -2.0714     3.2217     1.0414 C.ar         1    LIG   0.0000
  15 C15         -3.0726     2.2940     1.3057 C.ar         1    LIG   0.0000
  16 C16         -4.5167     2.7582     1.4128 C.3          1    LIG   0.0000
  17 C17         -4.8247     3.1268     2.8549 C.3          1    LIG   0.0000
  18 C18         -6.2682     3.5908     2.9620 C.3          1    LIG   0.0000
  19 C19         -4.6157     1.9119     3.7441 C.3          1    LIG   0.0000
  20 C20         -2.7600     0.9485     1.4726 C.ar         1    LIG   0.0000
  21 C21         -1.4392     0.5238     1.3728 C.ar         1    LIG   0.0000
  22 C22          1.1075    -0.4429     1.4590 C.2          1    LIG   0.0000
  23 C23          1.3594    -1.5391     0.6918 C.2          1    LIG   0.0000
  24 C24          1.3929    -2.7460     1.4408 C.2          1    LIG   0.0000
  25 C25          1.1743    -2.6449     2.7828 C.2          1    LIG   0.0000
  26 S26          0.9309    -0.9839     3.0608 S.3          1    LIG   0.0000
  27 C27          2.8782     1.3989     3.9826 C.ar         1    LIG   0.0000
  28 N28          4.0890     1.1296     3.3338 N.2          1    LIG   1.0000
  29 O29          4.1606     1.2101     2.1286 O.co2        1    LIG   0.0000
  30 O30          5.0721     0.8138     3.9836 O.co2        1    LIG  -1.0000
  31 C31          2.8048     1.3040     5.3681 C.ar         1    LIG   0.0000
  32 H            1.3024     1.0708     0.0494 H            1    LIG   0.0000
  33 H            1.1241     4.8002     8.3204 H            1    LIG   0.0000
  34 H            0.9610     3.9811     6.9171 H            1    LIG   0.0000
  35 H           -0.0262     3.6502     8.1751 H            1    LIG   0.0000
  36 H            2.7817     3.1659     8.1315 H            1    LIG   0.0000
  37 H           -0.3978     2.1270     5.7340 H            1    LIG   0.0000
  38 H           -0.2521     2.2830     3.3468 H            1    LIG   0.0000
  39 H            2.4909     2.4909     1.4303 H            1    LIG   0.0000
  40 H           -0.0226     3.4687     0.7499 H            1    LIG   0.0000
  41 H           -2.3030     4.1874     0.9238 H            1    LIG   0.0000
  42 H           -5.1262     2.0217     1.1196 H            1    LIG   0.0000
  43 H           -4.6541     3.5575     0.8278 H            1    LIG   0.0000
  44 H           -4.2152     3.8633     3.1482 H            1    LIG   0.0000
  45 H           -6.4709     3.8333     3.9108 H            1    LIG   0.0000
  46 H           -6.4057     4.3901     2.3770 H            1    LIG   0.0000
  47 H           -6.8777     2.8543     2.6687 H            1    LIG   0.0000
  48 H           -4.8184     2.1544     4.6929 H            1    LIG   0.0000
  49 H           -5.2253     1.1753     3.4509 H            1    LIG   0.0000
  50 H           -3.6661     1.6066     3.6737 H            1    LIG   0.0000
  51 H           -3.4848     0.2868     1.6642 H            1    LIG   0.0000
  52 H           -1.2076    -0.4419     1.4902 H            1    LIG   0.0000
  53 H            1.5056    -1.4989    -0.2967 H            1    LIG   0.0000
  54 H            1.5686    -3.6283     1.0041 H            1    LIG   0.0000
  55 H            1.1601    -3.3844     3.4558 H            1    LIG   0.0000
  56 H            3.6092     1.0458     5.9032 H            1    LIG   0.0000
@<TRIPOS>BOND
   1        1        2 1
   2        2        3 1
   3        3        4 2
   4        3        5 2
   5        3        6 1
   6        6        7 ar
   7        7        8 ar
   8        8        9 ar
   9        9       10 1
  10       10       11 1
  11       11       12 1
  12       12       13 ar
  13       13       14 ar
  14       14       15 ar
  15       15       16 1
  16       16       17 1
  17       17       18 1
  18       17       19 1
  19       15       20 ar
  20       20       21 ar
  21       21       12 ar
  22       11       22 1
  23       22       23 2
  24       23       24 1
  25       24       25 2
  26       25       26 1
  27       26       22 1
  28        9       27 ar
  29       27       28 1
  30       28       29 ar
  31       28       30 ar
  32       27       31 ar
  33       31        6 ar
  34       11       32 1
  35        1       33 1
  36        1       34 1
  37        1       35 1
  38        2       36 1
  39        7       37 1
  40        8       38 1
  41       10       39 1
  42       13       40 1
  43       14       41 1
  44       16       42 1
  45       16       43 1
  46       17       44 1
  47       18       45 1
  48       18       46 1
  49       18       47 1
  50       19       48 1
  51       19       49 1
  52       19       50 1
  53       20       51 1
  54       21       52 1
  55       23       53 1
  56       24       54 1
  57       25       55 1
  58       31       56 1

@<TRIPOS>MOLECULE

  56   58
SMALL
USER_CHARGES
@<TRIPOS>ATOM
   1 C1           2.0747    -1.0057     7.6525 C.3          1    LIG   0.0000
   2 N2           1.0655    -0.0588     8.1482 N.3          1    LIG   0.0000
   3 S3           1.4915     1.4578     7.7297 S.o2         1    LIG   0.0000
   4 O4           2.7716     1.7739     8.3086 O.2          1    LIG   0.0000
   5 O5           0.5029     2.3854     8.2153 O.2          1    LIG   0.0000
   6 C6           1.5941     1.5741     5.9970 C.ar         1    LIG   0.0000
   7 C7           0.4657     1.9349     5.2676 C.ar         1    LIG   0.0000
   8 C8           0.5522     2.0256     3.8824 C.ar         1    LIG   0.0000
   9 C9           1.7579     1.7579     3.2420 C.ar         1    LIG   0.0000
  10 N10          1.8487     1.8487     1.8487 N.pl3        1    LIG   0.0000
  11 C11          1.0000     1.0000     1.0000 C.3          1    LIG   0.0000
  12 C12         -0.4446     1.4595     1.1077 C.ar         1    LIG   0.0000
  13 C13         -1.4610     0.5116     1.1620 C.ar         1    LIG   0.0000
  14 C14         -2.7816     0.9381     1.2592 C.ar         1    LIG   0.0000
  15 C15         -3.0720     2.2971     1.3015 C.ar         1    LIG   0.0000
  16 C16         -4.5188     2.7525     1.4090 C.3          1    LIG   0.0000
  17 C17         -5.0997     2.9277     0.0154 C.3          1    LIG   0.0000
  18 C18         -6.5459     3.3828     0.1228 C.3          1    LIG   0.0000
  19 C19         -4.2948     3.9716    -0.7415 C.3          1    LIG   0.0000
  20 C20         -2.0485     3.2382     1.2456 C.ar         1    LIG   0.0000
  21 C21         -0.7251     2.8214     1.1490 C.ar         1    LIG   0.0000
  22 C22          1.1075    -0.4429     1.4590 C.2          1    LIG   0.0000
  23 C23          1.1601    -0.9025     2.7394 C.2          1    LIG   0.0000
  24 C24          1.2603    -2.3177     2.8183 C.2          1    LIG   0.0000
  25 C25          1.2901    -3.0003     1.6385 C.2          1    LIG   0.0000
  26 S26          1.1842    -1.7995     0.4375 S.3          1    LIG   0.0000
  27 C27          2.8782     1.3989     3.9826 C.ar         1    LIG   0.0000
  28 N28          4.0890     1.1296     3.3338 N.2          1    LIG   1.0000
  29 O29          4.1606     1.2101     2.1286 O.co2        1    LIG   0.0000
  30 O30          5.0721     0.8138     3.9836 O.co2        1    LIG  -1.0000
  31 C31          2.8048     1.3040     5.3681 C.ar         1    LIG   0.0000
  32 H            1.3024     1.0708     0.0494 H            1    LIG   0.0000
  33 H            1.8134    -1.9362     7.9092 H            1    LIG   0.0000
  34 H            2.1337    -0.9389     6.6565 H            1    LIG   0.0000
  35 H            2.9637    -0.7862     8.0545 H            1    LIG   0.0000
  36 H            0.1766    -0.2783     7.7462 H            1    LIG   0.0000
  37 H           -0.3978     2.1270     5.7340 H            1    LIG   0.0000
  38 H           -0.2521     2.2830     3.3468 H            1    LIG   0.0000
  39 H            2.4909     2.4909     1.4303 H            1    LIG   0.0000
  40 H           -1.2452    -0.4643     1.1316 H            1    LIG   0.0000
  41 H           -3.5221     0.2672     1.2985 H            1    LIG   0.0000
  42 H           -4.5586     3.6235     1.8986 H            1    LIG   0.0000
  43 H           -5.0483     2.0657     1.9069 H            1    LIG   0.0000
  44 H           -5.0599     2.0566    -0.4743 H            1    LIG   0.0000
  45 H           -6.9281     3.4981    -0.7941 H            1    LIG   0.0000
  46 H           -7.0754     2.6960     0.6207 H            1    LIG   0.0000
  47 H           -6.5857     4.2539     0.6124 H            1    LIG   0.0000
  48 H           -4.6770     4.0868    -1.6584 H            1    LIG   0.0000
  49 H           -4.3346     4.8426    -0.2519 H            1    LIG   0.0000
  50 H           -3.3433     3.6721    -0.8122 H            1    LIG   0.0000
  51 H           -2.2645     4.2141     1.2748 H            1    LIG   0.0000
  52 H            0.0155     3.4923     1.1098 H            1    LIG   0.0000
  53 H            1.1312    -0.3059     3.5414 H            1    LIG   0.0000
  54 H            1.3067    -2.7908     3.6981 H            1    LIG   0.0000
  55 H            1.3591    -3.9893     1.5076 H            1    LIG   0.0000
  56 H            3.6092     1.0458     5.9032 H            1    LIG   0.0000
@<TRIPOS>BOND
   1        1        2 1
   2        2        3 1
   3        3        4 2
   4        3        5 2
   5        3        6 1
   6        6        7 ar
   7        7        8 ar
   8        8        9 ar
   9        9       10 1
  10       10       11 1
  11       11       12 1
  12       12       13 ar
  13       13       14 ar
  14       14       15 ar
  15       15       16 1
  16       16       17 1
  17       17       18 1
  18       17       19 1
  19       15       20 ar
  20       20       21 ar
  21       21       12 ar
  22       11       22 1
  23       22       23 2
  24       23       24 1
  25       24       25 2
  26       25       26 1
  27       26       22 1
  28        9       27 ar
  29       27       28 1
  30       28       29 ar
  31       28       30 ar
  32       27       31 ar
  33       31        6 ar
  34       11       32 1
  35        1       33 1
  36        1       34 1
  37        1       35 1
  38        2       36 1
  39        7       37 1
  40        8       38 1
  41       10       39 1
  42       13       40 1
  43       14       41 1
  44       16       42 1
  45       16       43 1
  46       17       44 1
  47       18       45 1
  48       18       46 1
  49       18       47 1
  50       19       48 1
  51       19       49 1
  52       19       50 1
  53       20       51 1
  54       21       52 1
  55       23       53 1
  56       24       54 1
  57       25       55 1
  58       31       56 1

@<TRIPOS>MOLECULE

  56   58
SMALL
USER_CHARGES
@<TRIPOS>ATOM
   1 C1           2.0747    -1.0057     7.6525 C.3          1    LIG   0.0000
   2 N2           1.0655    -0.0588     8.1482 N.3          1    LIG   0.0000
   3 S3           1.4915     1.4578     7.7297 S.o2         1    LIG   0.0000
   4 O4           2.7716     1.7739     8.3086 O.2          1    LIG   0.0000
   5 O5           0.5029     2.3854     8.2153 O.2          1    LIG   0.0000
   6 C6           1.5941     1.5741     5.9970 C.ar         1    LIG   0.0000
   7 C7           0.4657     1.9349     5.2676 C.ar         1    LIG   0.0000
   8 C8           0.5522     2.0256     3.8824 C.ar         1    LIG   0.0000
   9 C9           1.7579     1.7579     3.2420 C.ar         1    LIG   0.0000
  10 N10          1.8487     1.8487     1.8487 N.pl3        1    LIG   0.0000
  11 C11          1.0000     1.0000     1.0000 C.3          1    LIG   0.0000
  12 C12         -0.4446     1.4595     1.1077 C.ar         1    LIG   0.0000
  13 C13         -1.4610     0.5116     1.1620 C.ar         1    LIG   0.0000
  14 C14         -2.7816     0.9381     1.2592 C.ar         1    LIG   0.0000
  15 C15         -3.0720     2.2971     1.3015 C.ar         1    LIG   0.0000
  16 C16         -4.5188     2.7525     1.4090 C.3          1    LIG   0.0000
  17 C17         -4.9020     2.8807     2.8743 C.3          1    LIG   0.0000
  18 C18         -6.3483     3.3359     2.9817 C.3          1    LIG   0.0000
  19 C19         -4.7427     1.5333     3.5595 C.3          1    LIG   0.0000
  20 C20         -2.0485     3.2382     1.2456 C.ar         1    LIG   0.0000
  21 C21         -0.7251     2.8214     1.1490 C.ar         1    LIG   0.0000
  22 C22          1.1075    -0.4429     1.4590 C.2          1    LIG   0.0000
  23 C23          1.3594    -1.5391     0.6918 C.2          1    LIG   0.0000
  24 C24          1.3929    -2.7460     1.4408 C.2          1    LIG   0.0000
  25 C25          1.1743    -2.6449     2.7828 C.2          1    LIG   0.0000
  26 S26          0.9309    -0.9839     3.0608 S.3          1    LIG   0.0000
  27 C27          2.8782     1.3989     3.9826 C.ar         1    LIG   0.0000
  28 N28          4.0890     1.1296     3.3338 N.2          1    LIG   1.0000
  29 O29          4.1606     1.2101     2.1286 O.co2        1    LIG   0.0000
  30 O30          5.0721     0.8138     3.9836 O.co2        1    LIG  -1.0000
  31 C31          2.8048     1.3040     5.3681 C.ar         1    LIG   0.0000
  32 H            1.3024     1.0708     0.0494 H            1    LIG   0.0000
  33 H            1.8134    -1.9362     7.9092 H            1    LIG   0.0000
  34 H            2.1337    -0.9389     6.6565 H            1    LIG   0.0000
  35 H            2.9637    -0.7862     8.0545 H            1    LIG   0.0000
  36 H            0.1766    -0.2783     7.7462 H            1    LIG   0.0000
  37 H           -0.3978     2.1270     5.7340 H            1    LIG   0.0000
  38 H           -0.2521     2.2830     3.3468 H            1    LIG   0.0000
  39 H            2.4909     2.4909     1.4303 H            1    LIG   0.0000
  40 H           -1.2452    -0.4643     1.1316 H            1    LIG   0.0000
  41 H           -3.5221     0.2672     1.2985 H            1    LIG   0.0000
  42 H           -5.1133     2.0811     0.9665 H            1    LIG   0.0000
  43 H           -4.6236     3.6389     0.9582 H            1    LIG   0.0000
  44 H           -4.3075     3.5521     3.3168 H            1    LIG   0.0000
  45 H           -6.6004     3.4203     3.9457 H            1    LIG   0.0000
  46 H           -6.4531     4.2224     2.5309 H            1    LIG   0.0000
  47 H           -6.9428     2.6646     2.5392 H            1    LIG   0.0000
  48 H           -4.9949     1.6177     4.5235 H            1    LIG   0.0000
  49 H           -5.3372     0.8620     3.1170 H            1    LIG   0.0000
  50 H           -3.7912     1.2339     3.4888 H            1    LIG   0.0000
  51 H           -2.2645     4.2141     1.2748 H            1    LIG   0.0000
  52 H            0.0155     3.4923     1.1098 H            1    LIG   0.0000
  53 H            1.5056    -1.4989    -0.2967 H            1    LIG   0.0000
  54 H            1.5686    -3.6283     1.0041 H            1    LIG   0.0000
  55 H            1.1601    -3.3844     3.4558 H            1    LIG   0.0000
  56 H            3.6092     1.0458     5.9032 H            1    LIG   0.0000
@<TRIPOS>BOND
   1        1        2 1
   2        2        3 1
   3        3        4 2
   4        3        5 2
   5        3        6 1
   6        6        7 ar
   7        7        8 ar
   8        8        9 ar
   9        9       10 1
  10       10       11 1
  11       11       12 1
  12       12       13 ar
  13       13       14 ar
  14       14       15 ar
  15       15       16 1
  16       16       17 1
  17       17       18 1
  18       17       19 1
  19       15       20 ar
  20       20       21 ar
  21       21       12 ar
  22       11       22 1
  23       22       23 2
  24       23       24 1
  25       24       25 2
  26       25       26 1
  27       26       22 1
  28        9       27 ar
  29       27       28 1
  30       28       29 ar
  31       28       30 ar
  32       27       31 ar
  33       31        6 ar
  34       11       32 1
  35        1       33 1
  36        1       34 1
  37        1       35 1
  38        2       36 1
  39        7       37 1
  40        8       38 1
  41       10       39 1
  42       13       40 1
  43       14       41 1
  44       16       42 1
  45       16       43 1
  46       17       44 1
  47       18       45 1
  48       18       46 1
  49       18       47 1
  50       19       48 1
  51       19       49 1
  52       19       50 1
  53       20       51 1
  54       21       52 1
  55       23       53 1
  56       24       54 1
  57       25       55 1
  58       31       56 1

@<TRIPOS>MOLECULE

  56   58
SMALL
USER_CHARGES
@<TRIPOS>ATOM
   1 C1           7.4651    -1.1216     0.5944 C.3          1    LIG   0.0000
   2 N2           7.9593    -0.7201     1.9193 N.3          1    LIG   0.0000
   3 S3           7.6632     0.8658     2.1520 S.o2         1    LIG   0.0000
   4 O4           8.3353     1.6337     1.1360 O.2          1    LIG   0.0000
   5 O5           8.1473     1.2592     3.4499 O.2          1    LIG   0.0000
   6 C6           5.9504     1.1555     2.0598 C.ar         1    LIG   0.0000
   7 C7           5.3736     1.4622     0.8315 C.ar         1    LIG   0.0000
   8 C8           4.0039     1.6941     0.7628 C.ar         1    LIG   0.0000
   9 C9           3.2270     1.6167     1.9142 C.ar         1    LIG   0.0000
  10 N10          1.8487     1.8487     1.8487 N.pl3        1    LIG   0.0000
  11 C11          1.0000     1.0000     1.0000 C.3          1    LIG   0.0000
  12 C12         -0.4446     1.4595     1.1077 C.ar         1    LIG   0.0000
  13 C13         -1.2402     1.4857    -0.0329 C.ar         1    LIG   0.0000
  14 C14         -2.5614     1.9085     0.0714 C.ar         1    LIG   0.0000
  15 C15         -3.0716     2.2975     1.3049 C.ar         1    LIG   0.0000
  16 C16         -4.5175     2.7568     1.4080 C.3          1    LIG   0.0000
  17 C17         -4.5889     4.2589     1.1866 C.3          1    LIG   0.0000
  18 C18         -6.0342     4.7181     1.2897 C.3          1    LIG   0.0000
  19 C19         -3.7559     4.9669     2.2427 C.3          1    LIG   0.0000
  20 C20         -2.2678     2.2689     2.4403 C.ar         1    LIG   0.0000
  21 C21         -0.9458     1.8471     2.3461 C.ar         1    LIG   0.0000
  22 C22          1.1075    -0.4429     1.4590 C.2          1    LIG   0.0000
  23 C23          2.2269    -1.0993     1.8710 C.2          1    LIG   0.0000
  24 C24          1.9773    -2.4503     2.2335 C.2          1    LIG   0.0000
  25 C25          0.6920    -2.8911     2.1218 C.2          1    LIG   0.0000
  26 S26         -0.1816    -1.5471     1.5509 S.3          1    LIG   0.0000
  27 C27          3.8156     1.3087     3.1354 C.ar         1    LIG   0.0000
  28 N28          3.0300     1.2328     4.2914 N.2          1    LIG   1.0000
  29 O29          1.8386     1.4345     4.2276 O.co2        1    LIG   0.0000
  30 O30          3.5465     0.9632     5.3633 O.co2        1    LIG  -1.0000
  31 C31          5.1841     1.0754     3.2177 C.ar         1    LIG   0.0000
  32 H            1.3024     1.0708     0.0494 H            1    LIG   0.0000
  33 H            7.6468    -2.0945     0.4517 H            1    LIG   0.0000
  34 H            6.4805    -0.9551     0.5414 H            1    LIG   0.0000
  35 H            7.9318    -0.5883    -0.1111 H            1    LIG   0.0000
  36 H            7.4926    -1.2533     2.6249 H            1    LIG   0.0000
  37 H            5.9374     1.5154     0.0073 H            1    LIG   0.0000
  38 H            3.5777     1.9164    -0.1141 H            1    LIG   0.0000
  39 H            1.4410     2.5919     2.3792 H            1    LIG   0.0000
  40 H           -0.8671     1.2041    -0.9170 H            1    LIG   0.0000
  41 H           -3.1442     1.9327    -0.7408 H            1    LIG   0.0000
  42 H           -4.8733     2.5364     2.3162 H            1    LIG   0.0000
  43 H           -5.0655     2.2911     0.7132 H            1    LIG   0.0000
  44 H           -4.2331     4.4793     0.2784 H            1    LIG   0.0000
  45 H           -6.0812     5.7063     1.1441 H            1    LIG   0.0000
  46 H           -6.5823     4.2523     0.5949 H            1    LIG   0.0000
  47 H           -6.3900     4.4977     2.1979 H            1    LIG   0.0000
  48 H           -3.8029     5.9551     2.0970 H            1    LIG   0.0000
  49 H           -4.1117     4.7465     3.1509 H            1    LIG   0.0000
  50 H           -2.8050     4.6648     2.1748 H            1    LIG   0.0000
  51 H           -2.6406     2.5517     3.3241 H            1    LIG   0.0000
  52 H           -0.3629     1.8228     3.1583 H            1    LIG   0.0000
  53 H            3.1312    -0.6745     1.9141 H            1    LIG   0.0000
  54 H            2.7101    -3.0497     2.5555 H            1    LIG   0.0000
  55 H            0.3400    -3.8037     2.3297 H            1    LIG   0.0000
  56 H            5.6101     0.8538     4.0949 H            1    LIG   0.0000
@<TRIPOS>BOND
   1        1        2 1
   2        2        3 1
   3        3        4 2
   4        3        5 2
   5        3        6 1
   6        6        7 ar
   7        7        8 ar
   8        8        9 ar
   9        9       10 1
  10       10       11 1
  11       11       12 1
  12       12       13 ar
  13       13       14 ar
  14       14       15 ar
  15       15       16 1
  16       16       17 1
  17       17       18 1
  18       17       19 1
  19       15       20 ar
  20       20       21 ar
  21       21       12 ar
  22       11       22 1
  23       22       23 2
  24       23       24 1
  25       24       25 2
  26       25       26 1
  27       26       22 1
  28        9       27 ar
  29       27       28 1
  30       28       29 ar
  31       28       30 ar
  32       27       31 ar
  33       31        6 ar
  34       11       32 1
  35        1       33 1
  36        1       34 1
  37        1       35 1
  38        2       36 1
  39        7       37 1
  40        8       38 1
  41       10       39 1
  42       13       40 1
  43       14       41 1
  44       16       42 1
  45       16       43 1
  46       17       44 1
  47       18       45 1
  48       18       46 1
  49       18       47 1
  50       19       48 1
  51       19       49 1
  52       19       50 1
  53       20       51 1
  54       21       52 1
  55       23       53 1
  56       24       54 1
  57       25       55 1
  58       31       56 1

@<TRIPOS>MOLECULE

  56   58
SMALL
USER_CHARGES
@<TRIPOS>ATOM
   1 C1           7.9663     2.8355     3.7152 C.3          1    LIG   0.0000
   2 N2           8.4370     2.2708     2.4423 N.3          1    LIG   0.0000
   3 S3           7.6632     0.8658     2.1520 S.o2         1    LIG   0.0000
   4 O4           7.9363    -0.0619     3.2189 O.2          1    LIG   0.0000
   5 O5           8.1243     0.3126     0.9050 O.2          1    LIG   0.0000
   6 C6           5.9504     1.1555     2.0598 C.ar         1    LIG   0.0000
   7 C7           5.3736     1.4622     0.8315 C.ar         1    LIG   0.0000
   8 C8           4.0039     1.6941     0.7628 C.ar         1    LIG   0.0000
   9 C9           3.2270     1.6167     1.9142 C.ar         1    LIG   0.0000
  10 N10          1.8487     1.8487     1.8487 N.pl3        1    LIG   0.0000
  11 C11          1.0000     1.0000     1.0000 C.3          1    LIG   0.0000
  12 C12         -0.4446     1.4595     1.1077 C.ar         1    LIG   0.0000
  13 C13         -1.2402     1.4857    -0.0329 C.ar         1    LIG   0.0000
  14 C14         -2.5614     1.9085     0.0714 C.ar         1    LIG   0.0000
  15 C15         -3.0716     2.2975     1.3049 C.ar         1    LIG   0.0000
  16 C16         -4.5175     2.7568     1.4080 C.3          1    LIG   0.0000
  17 C17         -4.5889     4.2589     1.1866 C.3          1    LIG   0.0000
  18 C18         -6.0342     4.7181     1.2897 C.3          1    LIG   0.0000
  19 C19         -3.7559     4.9669     2.2427 C.3          1    LIG   0.0000
  20 C20         -2.2678     2.2689     2.4403 C.ar         1    LIG   0.0000
  21 C21         -0.9458     1.8471     2.3461 C.ar         1    LIG   0.0000
  22 C22          1.1075    -0.4429     1.4590 C.2          1    LIG   0.0000
  23 C23          2.2269    -1.0993     1.8710 C.2          1    LIG   0.0000
  24 C24          1.9773    -2.4503     2.2335 C.2          1    LIG   0.0000
  25 C25          0.6920    -2.8911     2.1218 C.2          1    LIG   0.0000
  26 S26         -0.1816    -1.5471     1.5509 S.3          1    LIG   0.0000
  27 C27          3.8156     1.3087     3.1354 C.ar         1    LIG   0.0000
  28 N28          3.0300     1.2328     4.2914 N.2          1    LIG   1.0000
  29 O29          1.8386     1.4345     4.2276 O.co2        1    LIG   0.0000
  30 O30          3.5465     0.9632     5.3633 O.co2        1    LIG  -1.0000
  31 C31          5.1841     1.0754     3.2177 C.ar         1    LIG   0.0000
  32 H            1.3024     1.0708     0.0494 H            1    LIG   0.0000
  33 H            8.4410     3.6974     3.8933 H            1    LIG   0.0000
  34 H            6.9817     3.0020     3.6622 H            1    LIG   0.0000
  35 H            8.1560     2.1912     4.4561 H            1    LIG   0.0000
  36 H            8.2473     2.9151     1.7014 H            1    LIG   0.0000
  37 H            5.9374     1.5154     0.0073 H            1    LIG   0.0000
  38 H            3.5777     1.9164    -0.1141 H            1    LIG   0.0000
  39 H            1.4410     2.5919     2.3792 H            1    LIG   0.0000
  40 H           -0.8671     1.2041    -0.9170 H            1    LIG   0.0000
  41 H           -3.1442     1.9327    -0.7408 H            1    LIG   0.0000
  42 H           -4.8733     2.5364     2.3162 H            1    LIG   0.0000
  43 H           -5.0655     2.2911     0.7132 H            1    LIG   0.0000
  44 H           -4.2331     4.4793     0.2784 H            1    LIG   0.0000
  45 H           -6.0812     5.7063     1.1441 H            1    LIG   0.0000
  46 H           -6.5823     4.2523     0.5949 H            1    LIG   0.0000
  47 H           -6.3900     4.4977     2.1979 H            1    LIG   0.0000
  48 H           -3.8029     5.9551     2.0970 H            1    LIG   0.0000
  49 H           -4.1117     4.7465     3.1509 H            1    LIG   0.0000
  50 H           -2.8050     4.6648     2.1748 H            1    LIG   0.0000
  51 H           -2.6406     2.5517     3.3241 H            1    LIG   0.0000
  52 H           -0.3629     1.8228     3.1583 H            1    LIG   0.0000
  53 H            3.1312    -0.6745     1.9141 H            1    LIG   0.0000
  54 H            2.7101    -3.0497     2.5555 H            1    LIG   0.0000
  55 H            0.3400    -3.8037     2.3297 H            1    LIG   0.0000
  56 H            5.6101     0.8538     4.0949 H            1    LIG   0.0000
@<TRIPOS>BOND
   1        1        2 1
   2        2        3 1
   3        3        4 2
   4        3        5 2
   5        3        6 1
   6        6        7 ar
   7        7        8 ar
   8        8        9 ar
   9        9       10 1
  10       10       11 1
  11       11       12 1
  12       12       13 ar
  13       13       14 ar
  14       14       15 ar
  15       15       16 1
  16       16       17 1
  17       17       18 1
  18       17       19 1
  19       15       20 ar
  20       20       21 ar
  21       21       12 ar
  22       11       22 1
  23       22       23 2
  24       23       24 1
  25       24       25 2
  26       25       26 1
  27       26       22 1
  28        9       27 ar
  29       27       28 1
  30       28       29 ar
  31       28       30 ar
  32       27       31 ar
  33       31        6 ar
  34       11       32 1
  35        1       33 1
  36        1       34 1
  37        1       35 1
  38        2       36 1
  39        7       37 1
  40        8       38 1
  41       10       39 1
  42       13       40 1
  43       14       41 1
  44       16       42 1
  45       16       43 1
  46       17       44 1
  47       18       45 1
  48       18       46 1
  49       18       47 1
  50       19       48 1
  51       19       49 1
  52       19       50 1
  53       20       51 1
  54       21       52 1
  55       23       53 1
  56       24       54 1
  57       25       55 1
  58       31       56 1

@<TRIPOS>MOLECULE

  56   58
SMALL
USER_CHARGES
@<TRIPOS>ATOM
   1 C1           7.5554     0.5519     4.6222 C.3          1    LIG   0.0000
   2 N2           8.2274     1.3413     3.5801 N.3          1    LIG   0.0000
   3 S3           7.6697     0.8942     2.1152 S.o2         1    LIG   0.0000
   4 O4           7.9386    -0.5049     1.9058 O.2          1    LIG   0.0000
   5 O5           8.3281     1.6675     1.0944 O.2          1    LIG   0.0000
   6 C6           5.9543     1.1729     2.0380 C.ar         1    LIG   0.0000
   7 C7           5.0791     0.1634     2.4258 C.ar         1    LIG   0.0000
   8 C8           3.7084     0.3904     2.3614 C.ar         1    LIG   0.0000
   9 C9           3.2270     1.6167     1.9142 C.ar         1    LIG   0.0000
  10 N10          1.8487     1.8487     1.8487 N.pl3        1    LIG   0.0000
  11 C11          1.0000     1.0000     1.0000 C.3          1    LIG   0.0000
  12 C12         -0.4446     1.4595     1.1077 C.ar         1    LIG   0.0000
  13 C13         -1.2402     1.4857    -0.0329 C.ar         1    LIG   0.0000
  14 C14         -2.5614     1.9085     0.0714 C.ar         1    LIG   0.0000
  15 C15         -3.0716     2.2975     1.3049 C.ar         1    LIG   0.0000
  16 C16         -4.5175     2.7568     1.4080 C.3          1    LIG   0.0000
  17 C17         -4.5889     4.2589     1.1866 C.3          1    LIG   0.0000
  18 C18         -6.0342     4.7181     1.2897 C.3          1    LIG   0.0000
  19 C19         -3.7559     4.9669     2.2427 C.3          1    LIG   0.0000
  20 C20         -2.2678     2.2689     2.4403 C.ar         1    LIG   0.0000
  21 C21         -0.9458     1.8471     2.3461 C.ar         1    LIG   0.0000
  22 C22          1.1075    -0.4429     1.4590 C.2          1    LIG   0.0000
  23 C23          1.3594    -1.5391     0.6918 C.2          1    LIG   0.0000
  24 C24          1.3929    -2.7460     1.4408 C.2          1    LIG   0.0000
  25 C25          1.1743    -2.6449     2.7828 C.2          1    LIG   0.0000
  26 S26          0.9309    -0.9839     3.0608 S.3          1    LIG   0.0000
  27 C27          4.1122     2.6173     1.5301 C.ar         1    LIG   0.0000
  28 N28          3.6232     3.8492     1.0801 N.2          1    LIG   1.0000
  29 O29          2.4301     4.0433     1.0260 O.co2        1    LIG   0.0000
  30 O30          4.3999     4.7273     0.7423 O.co2        1    LIG  -1.0000
  31 C31          5.4850     2.4028     1.5891 C.ar         1    LIG   0.0000
  32 H            1.3024     1.0708     0.0494 H            1    LIG   0.0000
  33 H            7.8975     0.8262     5.5209 H            1    LIG   0.0000
  34 H            6.5693     0.7121     4.5778 H            1    LIG   0.0000
  35 H            7.7421    -0.4197     4.4768 H            1    LIG   0.0000
  36 H            8.0407     2.3129     3.7255 H            1    LIG   0.0000
  37 H            5.4316    -0.7155     2.7472 H            1    LIG   0.0000
  38 H            3.0691    -0.3277     2.6364 H            1    LIG   0.0000
  39 H            1.4410     2.5919     2.3792 H            1    LIG   0.0000
  40 H           -0.8671     1.2041    -0.9170 H            1    LIG   0.0000
  41 H           -3.1442     1.9327    -0.7408 H            1    LIG   0.0000
  42 H           -4.8733     2.5364     2.3162 H            1    LIG   0.0000
  43 H           -5.0655     2.2911     0.7132 H            1    LIG   0.0000
  44 H           -4.2331     4.4793     0.2784 H            1    LIG   0.0000
  45 H           -6.0812     5.7063     1.1441 H            1    LIG   0.0000
  46 H           -6.5823     4.2523     0.5949 H            1    LIG   0.0000
  47 H           -6.3900     4.4977     2.1979 H            1    LIG   0.0000
  48 H           -3.8029     5.9551     2.0970 H            1    LIG   0.0000
  49 H           -4.1117     4.7465     3.1509 H            1    LIG   0.0000
  50 H           -2.8050     4.6648     2.1748 H            1    LIG   0.0000
  51 H           -2.6406     2.5517     3.3241 H            1    LIG   0.0000
  52 H           -0.3629     1.8228     3.1583 H            1    LIG   0.0000
  53 H            1.5056    -1.4989    -0.2967 H            1    LIG   0.0000
  54 H            1.5686    -3.6283     1.0041 H            1    LIG   0.0000
  55 H            1.1601    -3.3844     3.4558 H            1    LIG   0.0000
  56 H            6.1240     3.1208     1.3134 H            1    LIG   0.0000
@<TRIPOS>BOND
   1        1        2 1
   2        2        3 1
   3        3        4 2
   4        3        5 2
   5        3        6 1
   6        6        7 ar
   7        7        8 ar
   8        8        9 ar
   9        9       10 1
  10       10       11 1
  11       11       12 1
  12       12       13 ar
  13       13       14 ar
  14       14       15 ar
  15       15       16 1
  16       16       17 1
  17       17       18 1
  18       17       19 1
  19       15       20 ar
  20       20       21 ar
  21       21       12 ar
  22       11       22 1
  23       22       23 2
  24       23       24 1
  25       24       25 2
  26       25       26 1
  27       26       22 1
  28        9       27 ar
  29       27       28 1
  30       28       29 ar
  31       28       30 ar
  32       27       31 ar
  33       31        6 ar
  34       11       32 1
  35        1       33 1
  36        1       34 1
  37        1       35 1
  38        2       36 1
  39        7       37 1
  40        8       38 1
  41       10       39 1
  42       13       40 1
  43       14       41 1
  44       16       42 1
  45       16       43 1
  46       17       44 1
  47       18       45 1
  48       18       46 1
  49       18       47 1
  50       19       48 1
  51       19       49 1
  52       19       50 1
  53       20       51 1
  54       21       52 1
  55       23       53 1
  56       24       54 1
  57       25       55 1
  58       31       56 1

@<TRIPOS>MOLECULE

  56   58
SMALL
USER_CHARGES
@<TRIPOS>ATOM
   1 C1           7.5554     0.5519     4.6222 C.3          1    LIG   0.0000
   2 N2           8.2274     1.3413     3.5801 N.3          1    LIG   0.0000
   3 S3           7.6697     0.8942     2.1152 S.o2         1    LIG   0.0000
   4 O4           7.9386    -0.5049     1.9058 O.2          1    LIG   0.0000
   5 O5           8.3281     1.6675     1.0944 O.2          1    LIG   0.0000
   6 C6           5.9543     1.1729     2.0380 C.ar         1    LIG   0.0000
   7 C7           5.0791     0.1634     2.4258 C.ar         1    LIG   0.0000
   8 C8           3.7084     0.3904     2.3614 C.ar         1    LIG   0.0000
   9 C9           3.2270     1.6167     1.9142 C.ar         1    LIG   0.0000
  10 N10          1.8487     1.8487     1.8487 N.pl3        1    LIG   0.0000
  11 C11          1.0000     1.0000     1.0000 C.3          1    LIG   0.0000
  12 C12         -0.4446     1.4595     1.1077 C.ar         1    LIG   0.0000
  13 C13         -1.0106     1.6458     2.3644 C.ar         1    LIG   0.0000
  14 C14         -2.3338     2.0653     2.4568 C.ar         1    LIG   0.0000
  15 C15         -3.0731     2.2936     1.3017 C.ar         1    LIG   0.0000
  16 C16         -4.5182     2.7530     1.4141 C.3          1    LIG   0.0000
  17 C17         -5.4334     1.5403     1.4591 C.3          1    LIG   0.0000
  18 C18         -6.8780     1.9995     1.5714 C.3          1    LIG   0.0000
  19 C19         -5.2581     0.7258     0.1878 C.3          1    LIG   0.0000
  20 C20         -2.4986     2.1036     0.0487 C.ar         1    LIG   0.0000
  21 C21         -1.1762     1.6850    -0.0538 C.ar         1    LIG   0.0000
  22 C22          1.1075    -0.4429     1.4590 C.2          1    LIG   0.0000
  23 C23          1.3594    -1.5391     0.6918 C.2          1    LIG   0.0000
  24 C24          1.3929    -2.7460     1.4408 C.2          1    LIG   0.0000
  25 C25          1.1743    -2.6449     2.7828 C.2          1    LIG   0.0000
  26 S26          0.9309    -0.9839     3.0608 S.3          1    LIG   0.0000
  27 C27          4.1122     2.6173     1.5301 C.ar         1    LIG   0.0000
  28 N28          3.6232     3.8492     1.0801 N.2          1    LIG   1.0000
  29 O29          2.4301     4.0433     1.0260 O.co2        1    LIG   0.0000
  30 O30          4.3999     4.7273     0.7423 O.co2        1    LIG  -1.0000
  31 C31          5.4850     2.4028     1.5891 C.ar         1    LIG   0.0000
  32 H            1.3024     1.0708     0.0494 H            1    LIG   0.0000
  33 H            7.8975     0.8262     5.5209 H            1    LIG   0.0000
  34 H            6.5693     0.7121     4.5778 H            1    LIG   0.0000
  35 H            7.7421    -0.4197     4.4768 H            1    LIG   0.0000
  36 H            8.0407     2.3129     3.7255 H            1    LIG   0.0000
  37 H            5.4316    -0.7155     2.7472 H            1    LIG   0.0000
  38 H            3.0691    -0.3277     2.6364 H            1    LIG   0.0000
  39 H            1.4410     2.5919     2.3792 H            1    LIG   0.0000
  40 H           -0.4731     1.4803     3.1913 H            1    LIG   0.0000
  41 H           -2.7532     2.2026     3.3542 H            1    LIG   0.0000
  42 H           -4.7512     3.3172     0.6220 H            1    LIG   0.0000
  43 H           -4.6336     3.2889     2.2505 H            1    LIG   0.0000
  44 H           -5.2005     0.9761     2.2512 H            1    LIG   0.0000
  45 H           -7.4801     1.2017     1.6010 H            1    LIG   0.0000
  46 H           -6.9934     2.5354     2.4078 H            1    LIG   0.0000
  47 H           -7.1109     2.5637     0.7792 H            1    LIG   0.0000
  48 H           -5.8602    -0.0721     0.2174 H            1    LIG   0.0000
  49 H           -5.4910     1.2899    -0.6044 H            1    LIG   0.0000
  50 H           -4.3077     0.4236     0.1139 H            1    LIG   0.0000
  51 H           -3.0366     2.2680    -0.7781 H            1    LIG   0.0000
  52 H           -0.7566     1.5478    -0.9512 H            1    LIG   0.0000
  53 H            1.5056    -1.4989    -0.2967 H            1    LIG   0.0000
  54 H            1.5686    -3.6283     1.0041 H            1    LIG   0.0000
  55 H            1.1601    -3.3844     3.4558 H            1    LIG   0.0000
  56 H            6.1240     3.1208     1.3134 H            1    LIG   0.0000
@<TRIPOS>BOND
   1        1        2 1
   2        2        3 1
   3        3        4 2
   4        3        5 2
   5        3        6 1
   6        6        7 ar
   7        7        8 ar
   8        8        9 ar
   9        9       10 1
  10       10       11 1
  11       11       12 1
  12       12       13 ar
  13       13       14 ar
  14       14       15 ar
  15       15       16 1
  16       16       17 1
  17       17       18 1
  18       17       19 1
  19       15       20 ar
  20       20       21 ar
  21       21       12 ar
  22       11       22 1
  23       22       23 2
  24       23       24 1
  25       24       25 2
  26       25       26 1
  27       26       22 1
  28        9       27 ar
  29       27       28 1
  30       28       29 ar
  31       28       30 ar
  32       27       31 ar
  33       31        6 ar
  34       11       32 1
  35        1       33 1
  36        1       34 1
  37        1       35 1
  38        2       36 1
  39        7       37 1
  40        8       38 1
  41       10       39 1
  42       13       40 1
  43       14       41 1
  44       16       42 1
  45       16       43 1
  46       17       44 1
  47       18       45 1
  48       18       46 1
  49       18       47 1
  50       19       48 1
  51       19       49 1
  52       19       50 1
  53       20       51 1
  54       21       52 1
  55       23       53 1
  56       24       54 1
  57       25       55 1
  58       31       56 1

@<TRIPOS>MOLECULE

  56   58
SMALL
USER_CHARGES
@<TRIPOS>ATOM
   1 C1           7.8892     1.2194    -0.3871 C.3          1    LIG   0.0000
   2 N2           8.1835     0.2729     0.6985 N.3          1    LIG   0.0000
   3 S3           7.6697     0.8942     2.1152 S.o2         1    LIG   0.0000
   4 O4           8.3475     2.1394     2.3672 O.2          1    LIG   0.0000
   5 O5           7.9580    -0.0330     3.1786 O.2          1    LIG   0.0000
   6 C6           5.9543     1.1729     2.0380 C.ar         1    LIG   0.0000
   7 C7           5.0791     0.1634     2.4258 C.ar         1    LIG   0.0000
   8 C8           3.7084     0.3904     2.3614 C.ar         1    LIG   0.0000
   9 C9           3.2270     1.6167     1.9142 C.ar         1    LIG   0.0000
  10 N10          1.8487     1.8487     1.8487 N.pl3        1    LIG   0.0000
  11 C11          1.0000     1.0000     1.0000 C.3          1    LIG   0.0000
  12 C12         -0.4446     1.4595     1.1077 C.ar         1    LIG   0.0000
  13 C13         -1.2402     1.4857    -0.0329 C.ar         1    LIG   0.0000
  14 C14         -2.5614     1.9085     0.0714 C.ar         1    LIG   0.0000
  15 C15         -3.0716     2.2975     1.3049 C.ar         1    LIG   0.0000
  16 C16         -4.5175     2.7568     1.4080 C.3          1    LIG   0.0000
  17 C17         -4.5889     4.2589     1.1866 C.3          1    LIG   0.0000
  18 C18         -6.0342     4.7181     1.2897 C.3          1    LIG   0.0000
  19 C19         -3.7559     4.9669     2.2427 C.3          1    LIG   0.0000
  20 C20         -2.2678     2.2689     2.4403 C.ar         1    LIG   0.0000
  21 C21         -0.9458     1.8471     2.3461 C.ar         1    LIG   0.0000
  22 C22          1.1075    -0.4429     1.4590 C.2          1    LIG   0.0000
  23 C23          1.3594    -1.5391     0.6918 C.2          1    LIG   0.0000
  24 C24          1.3929    -2.7460     1.4408 C.2          1    LIG   0.0000
  25 C25          1.1743    -2.6449     2.7828 C.2          1    LIG   0.0000
  26 S26          0.9309    -0.9839     3.0608 S.3          1    LIG   0.0000
  27 C27          4.1122     2.6173     1.5301 C.ar         1    LIG   0.0000
  28 N28          3.6232     3.8492     1.0801 N.2          1    LIG   1.0000
  29 O29          2.4301     4.0433     1.0260 O.co2        1    LIG   0.0000
  30 O30          4.3999     4.7273     0.7423 O.co2        1    LIG  -1.0000
  31 C31          5.4850     2.4028     1.5891 C.ar         1    LIG   0.0000
  32 H            1.3024     1.0708     0.0494 H            1    LIG   0.0000
  33 H            8.2044     0.8382    -1.2562 H            1    LIG   0.0000
  34 H            6.9031     1.3796    -0.4314 H            1    LIG   0.0000
  35 H            8.3599     2.0841    -0.2121 H            1    LIG   0.0000
  36 H            7.7128    -0.5919     0.5235 H            1    LIG   0.0000
  37 H            5.4316    -0.7155     2.7472 H            1    LIG   0.0000
  38 H            3.0691    -0.3277     2.6364 H            1    LIG   0.0000
  39 H            1.4410     2.5919     2.3792 H            1    LIG   0.0000
  40 H           -0.8671     1.2041    -0.9170 H            1    LIG   0.0000
  41 H           -3.1442     1.9327    -0.7408 H            1    LIG   0.0000
  42 H           -4.8733     2.5364     2.3162 H            1    LIG   0.0000
  43 H           -5.0655     2.2911     0.7132 H            1    LIG   0.0000
  44 H           -4.2331     4.4793     0.2784 H            1    LIG   0.0000
  45 H           -6.0812     5.7063     1.1441 H            1    LIG   0.0000
  46 H           -6.5823     4.2523     0.5949 H            1    LIG   0.0000
  47 H           -6.3900     4.4977     2.1979 H            1    LIG   0.0000
  48 H           -3.8029     5.9551     2.0970 H            1    LIG   0.0000
  49 H           -4.1117     4.7465     3.1509 H            1    LIG   0.0000
  50 H           -2.8050     4.6648     2.1748 H            1    LIG   0.0000
  51 H           -2.6406     2.5517     3.3241 H            1    LIG   0.0000
  52 H           -0.3629     1.8228     3.1583 H            1    LIG   0.0000
  53 H            1.5056    -1.4989    -0.2967 H            1    LIG   0.0000
  54 H            1.5686    -3.6283     1.0041 H            1    LIG   0.0000
  55 H            1.1601    -3.3844     3.4558 H            1    LIG   0.0000
  56 H            6.1240     3.1208     1.3134 H            1    LIG   0.0000
@<TRIPOS>BOND
   1        1        2 1
   2        2        3 1
   3        3        4 2
   4        3        5 2
   5        3        6 1
   6        6        7 ar
   7        7        8 ar
   8        8        9 ar
   9        9       10 1
  10       10       11 1
  11       11       12 1
  12       12       13 ar
  13       13       14 ar
  14       14       15 ar
  15       15       16 1
  16       16       17 1
  17       17       18 1
  18       17       19 1
  19       15       20 ar
  20       20       21 ar
  21       21       12 ar
  22       11       22 1
  23       22       23 2
  24       23       24 1
  25       24       25 2
  26       25       26 1
  27       26       22 1
  28        9       27 ar
  29       27       28 1
  30       28       29 ar
  31       28       30 ar
  32       27       31 ar
  33       31        6 ar
  34       11       32 1
  35        1       33 1
  36        1       34 1
  37        1       35 1
  38        2       36 1
  39        7       37 1
  40        8       38 1
  41       10       39 1
  42       13       40 1
  43       14       41 1
  44       16       42 1
  45       16       43 1
  46       17       44 1
  47       18       45 1
  48       18       46 1
  49       18       47 1
  50       19       48 1
  51       19       49 1
  52       19       50 1
  53       20       51 1
  54       21       52 1
  55       23       53 1
  56       24       54 1
  57       25       55 1
  58       31       56 1

@<TRIPOS>MOLECULE

  56   58
SMALL
USER_CHARGES
@<TRIPOS>ATOM
   1 C1           7.8892     1.2194    -0.3871 C.3          1    LIG   0.0000
   2 N2           8.1835     0.2729     0.6985 N.3          1    LIG   0.0000
   3 S3           7.6697     0.8942     2.1152 S.o2         1    LIG   0.0000
   4 O4           8.3475     2.1394     2.3672 O.2          1    LIG   0.0000
   5 O5           7.9580    -0.0330     3.1786 O.2          1    LIG   0.0000
   6 C6           5.9543     1.1729     2.0380 C.ar         1    LIG   0.0000
   7 C7           5.0791     0.1634     2.4258 C.ar         1    LIG   0.0000
   8 C8           3.7084     0.3904     2.3614 C.ar         1    LIG   0.0000
   9 C9           3.2270     1.6167     1.9142 C.ar         1    LIG   0.0000
  10 N10          1.8487     1.8487     1.8487 N.pl3        1    LIG   0.0000
  11 C11          1.0000     1.0000     1.0000 C.3          1    LIG   0.0000
  12 C12         -0.4446     1.4595     1.1077 C.ar         1    LIG   0.0000
  13 C13         -1.0106     1.6458     2.3644 C.ar         1    LIG   0.0000
  14 C14         -2.3338     2.0653     2.4568 C.ar         1    LIG   0.0000
  15 C15         -3.0731     2.2936     1.3017 C.ar         1    LIG   0.0000
  16 C16         -4.5182     2.7530     1.4141 C.3          1    LIG   0.0000
  17 C17         -5.4334     1.5403     1.4591 C.3          1    LIG   0.0000
  18 C18         -6.8780     1.9995     1.5714 C.3          1    LIG   0.0000
  19 C19         -5.2581     0.7258     0.1878 C.3          1    LIG   0.0000
  20 C20         -2.4986     2.1036     0.0487 C.ar         1    LIG   0.0000
  21 C21         -1.1762     1.6850    -0.0538 C.ar         1    LIG   0.0000
  22 C22          1.1075    -0.4429     1.4590 C.2          1    LIG   0.0000
  23 C23          1.3594    -1.5391     0.6918 C.2          1    LIG   0.0000
  24 C24          1.3929    -2.7460     1.4408 C.2          1    LIG   0.0000
  25 C25          1.1743    -2.6449     2.7828 C.2          1    LIG   0.0000
  26 S26          0.9309    -0.9839     3.0608 S.3          1    LIG   0.0000
  27 C27          4.1122     2.6173     1.5301 C.ar         1    LIG   0.0000
  28 N28          3.6232     3.8492     1.0801 N.2          1    LIG   1.0000
  29 O29          2.4301     4.0433     1.0260 O.co2        1    LIG   0.0000
  30 O30          4.3999     4.7273     0.7423 O.co2        1    LIG  -1.0000
  31 C31          5.4850     2.4028     1.5891 C.ar         1    LIG   0.0000
  32 H            1.3024     1.0708     0.0494 H            1    LIG   0.0000
  33 H            8.2044     0.8382    -1.2562 H            1    LIG   0.0000
  34 H            6.9031     1.3796    -0.4314 H            1    LIG   0.0000
  35 H            8.3599     2.0841    -0.2121 H            1    LIG   0.0000
  36 H            7.7128    -0.5919     0.5235 H            1    LIG   0.0000
  37 H            5.4316    -0.7155     2.7472 H            1    LIG   0.0000
  38 H            3.0691    -0.3277     2.6364 H            1    LIG   0.0000
  39 H            1.4410     2.5919     2.3792 H            1    LIG   0.0000
  40 H           -0.4731     1.4803     3.1913 H            1    LIG   0.0000
  41 H           -2.7532     2.2026     3.3542 H            1    LIG   0.0000
  42 H           -4.7512     3.3172     0.6220 H            1    LIG   0.0000
  43 H           -4.6336     3.2889     2.2505 H            1    LIG   0.0000
  44 H           -5.2005     0.9761     2.2512 H            1    LIG   0.0000
  45 H           -7.4801     1.2017     1.6010 H            1    LIG   0.0000
  46 H           -6.9934     2.5354     2.4078 H            1    LIG   0.0000
  47 H           -7.1109     2.5637     0.7792 H            1    LIG   0.0000
  48 H           -5.8602    -0.0721     0.2174 H            1    LIG   0.0000
  49 H           -5.4910     1.2899    -0.6044 H            1    LIG   0.0000
  50 H           -4.3077     0.4236     0.1139 H            1    LIG   0.0000
  51 H           -3.0366     2.2680    -0.7781 H            1    LIG   0.0000
  52 H           -0.7566     1.5478    -0.9512 H            1    LIG   0.0000
  53 H            1.5056    -1.4989    -0.2967 H            1    LIG   0.0000
  54 H            1.5686    -3.6283     1.0041 H            1    LIG   0.0000
  55 H            1.1601    -3.3844     3.4558 H            1    LIG   0.0000
  56 H            6.1240     3.1208     1.3134 H            1    LIG   0.0000
@<TRIPOS>BOND
   1        1        2 1
   2        2        3 1
   3        3        4 2
   4        3        5 2
   5        3        6 1
   6        6        7 ar
   7        7        8 ar
   8        8        9 ar
   9        9       10 1
  10       10       11 1
  11       11       12 1
  12       12       13 ar
  13       13       14 ar
  14       14       15 ar
  15       15       16 1
  16       16       17 1
  17       17       18 1
  18       17       19 1
  19       15       20 ar
  20       20       21 ar
  21       21       12 ar
  22       11       22 1
  23       22       23 2
  24       23       24 1
  25       24       25 2
  26       25       26 1
  27       26       22 1
  28        9       27 ar
  29       27       28 1
  30       28       29 ar
  31       28       30 ar
  32       27       31 ar
  33       31        6 ar
  34       11       32 1
  35        1       33 1
  36        1       34 1
  37        1       35 1
  38        2       36 1
  39        7       37 1
  40        8       38 1
  41       10       39 1
  42       13       40 1
  43       14       41 1
  44       16       42 1
  45       16       43 1
  46       17       44 1
  47       18       45 1
  48       18       46 1
  49       18       47 1
  50       19       48 1
  51       19       49 1
  52       19       50 1
  53       20       51 1
  54       21       52 1
  55       23       53 1
  56       24       54 1
  57       25       55 1
  58       31       56 1

