@<TRIPOS>MOLECULE
*****
 56 58 0 0 0
SMALL
USER_CHARGES

@<TRIPOS>ATOM
      1 C1          5.3186    7.0970    0.3139 C.3     1  LIG1        0.0000
      2 N2          4.2826    7.9446    0.9216 N.3     1  LIG1        0.0000
      3 S3          2.8164    7.4848    0.3778 S.O2    1  LIG1        0.0000
      4 O4          2.7706    7.6236   -1.0548 O.2     1  LIG1        0.0000
      5 O5          1.8016    8.3152    0.9731 O.2     1  LIG1        0.0000
      6 C6          2.5328    5.8236    0.8088 C.3     1  LIG1        0.0000
      7 C7          2.9206    4.8140   -0.0663 C.3     1  LIG1        0.0000
      8 C8          2.6909    3.4872    0.2821 C.3     1  LIG1        0.0000
      9 C9          2.0808    3.1823    1.4947 C.3     1  LIG1        0.0000
     10 N10         1.8487    1.8487    1.8487 N.pl3   1  LIG1        0.0000
     11 C11         1.0000    1.0000    1.0000 C.3     1  LIG1        0.0000
     12 C12        -0.4446    1.4595    1.1077 C.3     1  LIG1        0.0000
     13 C13        -1.0106    1.6458    2.3644 C.3     1  LIG1        0.0000
     14 C14        -2.3338    2.0653    2.4568 C.3     1  LIG1        0.0000
     15 C15        -3.0731    2.2936    1.3017 C.3     1  LIG1        0.0000
     16 C16        -4.5182    2.7530    1.4141 C.3     1  LIG1        0.0000
     17 C17        -5.4334    1.5403    1.4591 C.3     1  LIG1        0.0000
     18 C18        -6.8780    1.9995    1.5714 C.3     1  LIG1        0.0000
     19 C19        -5.2581    0.7258    0.1878 C.3     1  LIG1        0.0000
     20 C20        -2.4986    2.1036    0.0487 C.3     1  LIG1        0.0000
     21 C21        -1.1762    1.6850   -0.0538 C.3     1  LIG1        0.0000
     22 C22         1.1075   -0.4429    1.4590 C.2     1  LIG1        0.0000
     23 C23         2.2269   -1.0993    1.8710 C.2     1  LIG1        0.0000
     24 C24         1.9773   -2.4503    2.2335 C.2     1  LIG1        0.0000
     25 C25         0.6920   -2.8911    2.1218 C.2     1  LIG1        0.0000
     26 S26        -0.1816   -1.5471    1.5509 S.3     1  LIG1        0.0000
     27 C27         1.6986    4.2005    2.3605 C.3     1  LIG1        0.0000
     28 N28         1.0843    3.8891    3.5791 N.pl3   1  LIG1        1.0000
     29 O29         0.8866    2.7336    3.8791 O.2     1  LIG1        0.0000
     30 O30         0.7482    4.7826    4.3387 O.2     1  LIG1       -1.0000
     31 C31         1.9220    5.5312    2.0237 C.3     1  LIG1        0.0000
     32 H           1.3024    1.0708    0.0494 H       1  LIG1        0.0000
     33 H           6.2181    7.3790    0.6475 H       1  LIG1        0.0000
     34 H           5.1555    6.1420    0.5617 H       1  LIG1        0.0000
     35 H           5.2868    7.1933   -0.6810 H       1  LIG1        0.0000
     36 H           4.3144    7.8482    1.9164 H       1  LIG1        0.0000
     37 H           3.3596    5.0397   -0.9360 H       1  LIG1        0.0000
     38 H           2.9641    2.7525   -0.3388 H       1  LIG1        0.0000
     39 H           2.2602    1.4729    2.6791 H       1  LIG1        0.0000
     40 H          -0.4731    1.4803    3.1913 H       1  LIG1        0.0000
     41 H          -2.7532    2.2026    3.3542 H       1  LIG1        0.0000
     42 H          -4.7512    3.3172    0.6220 H       1  LIG1        0.0000
     43 H          -4.6336    3.2889    2.2505 H       1  LIG1        0.0000
     44 H          -5.2005    0.9761    2.2512 H       1  LIG1        0.0000
     45 H          -7.4801    1.2017    1.6010 H       1  LIG1        0.0000
     46 H          -6.9934    2.5354    2.4078 H       1  LIG1        0.0000
     47 H          -7.1109    2.5637    0.7792 H       1  LIG1        0.0000
     48 H          -5.8602   -0.0721    0.2174 H       1  LIG1        0.0000
     49 H          -5.4910    1.2899   -0.6044 H       1  LIG1        0.0000
     50 H          -4.3077    0.4236    0.1139 H       1  LIG1        0.0000
     51 H          -3.0366    2.2680   -0.7781 H       1  LIG1        0.0000
     52 H          -0.7566    1.5478   -0.9512 H       1  LIG1        0.0000
     53 H           3.1312   -0.6745    1.9141 H       1  LIG1        0.0000
     54 H           2.7101   -3.0497    2.5555 H       1  LIG1        0.0000
     55 H           0.3400   -3.8037    2.3297 H       1  LIG1        0.0000
     56 H           1.6480    6.2656    2.6446 H       1  LIG1        0.0000
@<TRIPOS>BOND
     1     1     2    1
     2     2     3    1
     3     3     4    2
     4     3     5    2
     5     3     6    1
     6     6     7   ar
     7     7     8   ar
     8     8     9   ar
     9     9    10    1
    10    10    11    1
    11    11    12    1
    12    12    13   ar
    13    13    14   ar
    14    14    15   ar
    15    15    16    1
    16    16    17    1
    17    17    18    1
    18    17    19    1
    19    15    20   ar
    20    20    21   ar
    21    21    12   ar
    22    11    22    1
    23    22    23    2
    24    23    24    1
    25    24    25    2
    26    25    26    1
    27    26    22    1
    28     9    27   ar
    29    27    28    1
    30    28    29   ar
    31    28    30   ar
    32    27    31   ar
    33    31     6   ar
    34    11    32    1
    35     1    33    1
    36     1    34    1
    37     1    35    1
    38     2    36    1
    39     7    37    1
    40     8    38    1
    41    10    39    1
    42    13    40    1
    43    14    41    1
    44    16    42    1
    45    16    43    1
    46    17    44    1
    47    18    45    1
    48    18    46    1
    49    18    47    1
    50    19    48    1
    51    19    49    1
    52    19    50    1
    53    20    51    1
    54    21    52    1
    55    23    53    1
    56    24    54    1
    57    25    55    1
    58    31    56    1
