@<TRIPOS>MOLECULE
*****
 56 58 0 0 0
SMALL
USER_CHARGES

@<TRIPOS>ATOM
      1 C1          0.9020    3.9143    7.9131 C.3     1  LIG1        0.0000
      2 N2          1.8535    2.9019    8.3935 N.3     1  LIG1        0.0000
      3 S3          1.4915    1.4578    7.7297 S.O2    1  LIG1        0.0000
      4 O4          0.1549    1.0776    8.1070 O.2     1  LIG1        0.0000
      5 O5          2.4235    0.4661    8.2002 O.2     1  LIG1        0.0000
      6 C6          1.5941    1.5741    5.9970 C.3     1  LIG1        0.0000
      7 C7          0.4657    1.9349    5.2676 C.3     1  LIG1        0.0000
      8 C8          0.5522    2.0256    3.8824 C.3     1  LIG1        0.0000
      9 C9          1.7579    1.7579    3.2420 C.3     1  LIG1        0.0000
     10 N10         1.8487    1.8487    1.8487 N.pl3   1  LIG1        0.0000
     11 C11         1.0000    1.0000    1.0000 C.3     1  LIG1        0.0000
     12 C12        -0.4446    1.4595    1.1077 C.3     1  LIG1        0.0000
     13 C13        -1.4610    0.5116    1.1620 C.3     1  LIG1        0.0000
     14 C14        -2.7816    0.9381    1.2592 C.3     1  LIG1        0.0000
     15 C15        -3.0720    2.2971    1.3015 C.3     1  LIG1        0.0000
     16 C16        -4.5188    2.7525    1.4090 C.3     1  LIG1        0.0000
     17 C17        -5.0997    2.9277    0.0154 C.3     1  LIG1        0.0000
     18 C18        -6.5459    3.3828    0.1228 C.3     1  LIG1        0.0000
     19 C19        -4.2948    3.9716   -0.7415 C.3     1  LIG1        0.0000
     20 C20        -2.0485    3.2382    1.2456 C.3     1  LIG1        0.0000
     21 C21        -0.7251    2.8214    1.1490 C.3     1  LIG1        0.0000
     22 C22         1.1075   -0.4429    1.4590 C.2     1  LIG1        0.0000
     23 C23         1.1601   -0.9025    2.7394 C.2     1  LIG1        0.0000
     24 C24         1.2603   -2.3177    2.8183 C.2     1  LIG1        0.0000
     25 C25         1.2901   -3.0003    1.6385 C.2     1  LIG1        0.0000
     26 S26         1.1842   -1.7995    0.4375 S.3     1  LIG1        0.0000
     27 C27         2.8782    1.3989    3.9826 C.3     1  LIG1        0.0000
     28 N28         4.0890    1.1296    3.3338 N.pl3   1  LIG1        1.0000
     29 O29         4.1606    1.2101    2.1286 O.2     1  LIG1        0.0000
     30 O30         5.0721    0.8138    3.9836 O.2     1  LIG1       -1.0000
     31 C31         2.8048    1.3040    5.3681 C.3     1  LIG1        0.0000
     32 H           1.3024    1.0708    0.0494 H       1  LIG1        0.0000
     33 H           1.1241    4.8002    8.3204 H       1  LIG1        0.0000
     34 H           0.9610    3.9811    6.9171 H       1  LIG1        0.0000
     35 H          -0.0262    3.6502    8.1751 H       1  LIG1        0.0000
     36 H           2.7817    3.1659    8.1315 H       1  LIG1        0.0000
     37 H          -0.3978    2.1270    5.7340 H       1  LIG1        0.0000
     38 H          -0.2521    2.2830    3.3468 H       1  LIG1        0.0000
     39 H           2.4909    2.4909    1.4303 H       1  LIG1        0.0000
     40 H          -1.2452   -0.4643    1.1316 H       1  LIG1        0.0000
     41 H          -3.5221    0.2672    1.2985 H       1  LIG1        0.0000
     42 H          -4.5586    3.6235    1.8986 H       1  LIG1        0.0000
     43 H          -5.0483    2.0657    1.9069 H       1  LIG1        0.0000
     44 H          -5.0599    2.0566   -0.4743 H       1  LIG1        0.0000
     45 H          -6.9281    3.4981   -0.7941 H       1  LIG1        0.0000
     46 H          -7.0754    2.6960    0.6207 H       1  LIG1        0.0000
     47 H          -6.5857    4.2539    0.6124 H       1  LIG1        0.0000
     48 H          -4.6770    4.0868   -1.6584 H       1  LIG1        0.0000
     49 H          -4.3346    4.8426   -0.2519 H       1  LIG1        0.0000
     50 H          -3.3433    3.6721   -0.8122 H       1  LIG1        0.0000
     51 H          -2.2645    4.2141    1.2748 H       1  LIG1        0.0000
     52 H           0.0155    3.4923    1.1098 H       1  LIG1        0.0000
     53 H           1.1312   -0.3059    3.5414 H       1  LIG1        0.0000
     54 H           1.3067   -2.7908    3.6981 H       1  LIG1        0.0000
     55 H           1.3591   -3.9893    1.5076 H       1  LIG1        0.0000
     56 H           3.6092    1.0458    5.9032 H       1  LIG1        0.0000
@<TRIPOS>BOND
     1     1     2    1
     2     2     3    1
     3     3     4    2
     4     3     5    2
     5     3     6    1
     6     6     7   ar
     7     7     8   ar
     8     8     9   ar
     9     9    10    1
    10    10    11    1
    11    11    12    1
    12    12    13   ar
    13    13    14   ar
    14    14    15   ar
    15    15    16    1
    16    16    17    1
    17    17    18    1
    18    17    19    1
    19    15    20   ar
    20    20    21   ar
    21    21    12   ar
    22    11    22    1
    23    22    23    2
    24    23    24    1
    25    24    25    2
    26    25    26    1
    27    26    22    1
    28     9    27   ar
    29    27    28    1
    30    28    29   ar
    31    28    30   ar
    32    27    31   ar
    33    31     6   ar
    34    11    32    1
    35     1    33    1
    36     1    34    1
    37     1    35    1
    38     2    36    1
    39     7    37    1
    40     8    38    1
    41    10    39    1
    42    13    40    1
    43    14    41    1
    44    16    42    1
    45    16    43    1
    46    17    44    1
    47    18    45    1
    48    18    46    1
    49    18    47    1
    50    19    48    1
    51    19    49    1
    52    19    50    1
    53    20    51    1
    54    21    52    1
    55    23    53    1
    56    24    54    1
    57    25    55    1
    58    31    56    1
