@<TRIPOS>MOLECULE
*****
 56 58 0 0 0
SMALL
USER_CHARGES

@<TRIPOS>ATOM
      1 C1          4.2467    7.8306    2.4398 C.3     1  LIG1        0.0000
      2 N2          3.0899    8.3582    1.7019 N.3     1  LIG1        0.0000
      3 S3          2.8549    7.4719    0.3542 S.O2    1  LIG1        0.0000
      4 O4          4.0280    7.5430   -0.4778 O.2     1  LIG1        0.0000
      5 O5          1.7217    7.9888   -0.3686 O.2     1  LIG1        0.0000
      6 C6          2.5556    5.8157    0.7943 C.3     1  LIG1        0.0000
      7 C7          1.2498    5.3940    1.0235 C.3     1  LIG1        0.0000
      8 C8          1.0155    4.0691    1.3761 C.3     1  LIG1        0.0000
      9 C9          2.0808    3.1823    1.4947 C.3     1  LIG1        0.0000
     10 N10         1.8487    1.8487    1.8487 N.pl3   1  LIG1        0.0000
     11 C11         1.0000    1.0000    1.0000 C.3     1  LIG1        0.0000
     12 C12        -0.4446    1.4595    1.1077 C.3     1  LIG1        0.0000
     13 C13        -1.2402    1.4857   -0.0329 C.3     1  LIG1        0.0000
     14 C14        -2.5614    1.9085    0.0714 C.3     1  LIG1        0.0000
     15 C15        -3.0716    2.2975    1.3049 C.3     1  LIG1        0.0000
     16 C16        -4.5175    2.7568    1.4080 C.3     1  LIG1        0.0000
     17 C17        -4.5889    4.2589    1.1866 C.3     1  LIG1        0.0000
     18 C18        -6.0342    4.7181    1.2897 C.3     1  LIG1        0.0000
     19 C19        -3.7559    4.9669    2.2427 C.3     1  LIG1        0.0000
     20 C20        -2.2678    2.2689    2.4403 C.3     1  LIG1        0.0000
     21 C21        -0.9458    1.8471    2.3461 C.3     1  LIG1        0.0000
     22 C22         1.1075   -0.4429    1.4590 C.2     1  LIG1        0.0000
     23 C23         2.2269   -1.0993    1.8710 C.2     1  LIG1        0.0000
     24 C24         1.9773   -2.4503    2.2335 C.2     1  LIG1        0.0000
     25 C25         0.6920   -2.8911    2.1218 C.2     1  LIG1        0.0000
     26 S26        -0.1816   -1.5471    1.5509 S.3     1  LIG1        0.0000
     27 C27         3.3809    3.6163    1.2625 C.3     1  LIG1        0.0000
     28 N28         4.4497    2.7206    1.3838 N.pl3   1  LIG1        1.0000
     29 O29         4.2419    1.5687    1.6902 O.2     1  LIG1        0.0000
     30 O30         5.5908    3.1015    1.1807 O.2     1  LIG1       -1.0000
     31 C31         3.6287    4.9385    0.9099 C.3     1  LIG1        0.0000
     32 H           1.3024    1.0708    0.0494 H       1  LIG1        0.0000
     33 H           4.3909    8.3743    3.2665 H       1  LIG1        0.0000
     34 H           4.0747    6.8785    2.6927 H       1  LIG1        0.0000
     35 H           5.0614    7.8800    1.8620 H       1  LIG1        0.0000
     36 H           2.2753    8.3088    2.2797 H       1  LIG1        0.0000
     37 H           0.4883    6.0362    0.9356 H       1  LIG1        0.0000
     38 H           0.0815    3.7541    1.5444 H       1  LIG1        0.0000
     39 H           2.2602    1.4729    2.6791 H       1  LIG1        0.0000
     40 H          -0.8671    1.2041   -0.9170 H       1  LIG1        0.0000
     41 H          -3.1442    1.9327   -0.7408 H       1  LIG1        0.0000
     42 H          -4.8733    2.5364    2.3162 H       1  LIG1        0.0000
     43 H          -5.0655    2.2911    0.7132 H       1  LIG1        0.0000
     44 H          -4.2331    4.4793    0.2784 H       1  LIG1        0.0000
     45 H          -6.0812    5.7063    1.1441 H       1  LIG1        0.0000
     46 H          -6.5823    4.2523    0.5949 H       1  LIG1        0.0000
     47 H          -6.3900    4.4977    2.1979 H       1  LIG1        0.0000
     48 H          -3.8029    5.9551    2.0970 H       1  LIG1        0.0000
     49 H          -4.1117    4.7465    3.1509 H       1  LIG1        0.0000
     50 H          -2.8050    4.6648    2.1748 H       1  LIG1        0.0000
     51 H          -2.6406    2.5517    3.3241 H       1  LIG1        0.0000
     52 H          -0.3629    1.8228    3.1583 H       1  LIG1        0.0000
     53 H           3.1312   -0.6745    1.9141 H       1  LIG1        0.0000
     54 H           2.7101   -3.0497    2.5555 H       1  LIG1        0.0000
     55 H           0.3400   -3.8037    2.3297 H       1  LIG1        0.0000
     56 H           4.5630    5.2534    0.7424 H       1  LIG1        0.0000
@<TRIPOS>BOND
     1     1     2    1
     2     2     3    1
     3     3     4    2
     4     3     5    2
     5     3     6    1
     6     6     7   ar
     7     7     8   ar
     8     8     9   ar
     9     9    10    1
    10    10    11    1
    11    11    12    1
    12    12    13   ar
    13    13    14   ar
    14    14    15   ar
    15    15    16    1
    16    16    17    1
    17    17    18    1
    18    17    19    1
    19    15    20   ar
    20    20    21   ar
    21    21    12   ar
    22    11    22    1
    23    22    23    2
    24    23    24    1
    25    24    25    2
    26    25    26    1
    27    26    22    1
    28     9    27   ar
    29    27    28    1
    30    28    29   ar
    31    28    30   ar
    32    27    31   ar
    33    31     6   ar
    34    11    32    1
    35     1    33    1
    36     1    34    1
    37     1    35    1
    38     2    36    1
    39     7    37    1
    40     8    38    1
    41    10    39    1
    42    13    40    1
    43    14    41    1
    44    16    42    1
    45    16    43    1
    46    17    44    1
    47    18    45    1
    48    18    46    1
    49    18    47    1
    50    19    48    1
    51    19    49    1
    52    19    50    1
    53    20    51    1
    54    21    52    1
    55    23    53    1
    56    24    54    1
    57    25    55    1
    58    31    56    1
