@<TRIPOS>MOLECULE
*****
 56 58 0 0 0
SMALL
USER_CHARGES

@<TRIPOS>ATOM
      1 C1          7.5554    0.5519    4.6222 C.3     1  LIG1        0.0000
      2 N2          8.2274    1.3413    3.5801 N.3     1  LIG1        0.0000
      3 S3          7.6697    0.8942    2.1152 S.O2    1  LIG1        0.0000
      4 O4          7.9386   -0.5049    1.9058 O.2     1  LIG1        0.0000
      5 O5          8.3281    1.6675    1.0944 O.2     1  LIG1        0.0000
      6 C6          5.9543    1.1729    2.0380 C.3     1  LIG1        0.0000
      7 C7          5.0791    0.1634    2.4258 C.3     1  LIG1        0.0000
      8 C8          3.7084    0.3904    2.3614 C.3     1  LIG1        0.0000
      9 C9          3.2270    1.6167    1.9142 C.3     1  LIG1        0.0000
     10 N10         1.8487    1.8487    1.8487 N.pl3   1  LIG1        0.0000
     11 C11         1.0000    1.0000    1.0000 C.3     1  LIG1        0.0000
     12 C12        -0.4446    1.4595    1.1077 C.3     1  LIG1        0.0000
     13 C13        -1.0106    1.6458    2.3644 C.3     1  LIG1        0.0000
     14 C14        -2.3338    2.0653    2.4568 C.3     1  LIG1        0.0000
     15 C15        -3.0731    2.2936    1.3017 C.3     1  LIG1        0.0000
     16 C16        -4.5182    2.7530    1.4141 C.3     1  LIG1        0.0000
     17 C17        -5.4334    1.5403    1.4591 C.3     1  LIG1        0.0000
     18 C18        -6.8780    1.9995    1.5714 C.3     1  LIG1        0.0000
     19 C19        -5.2581    0.7258    0.1878 C.3     1  LIG1        0.0000
     20 C20        -2.4986    2.1036    0.0487 C.3     1  LIG1        0.0000
     21 C21        -1.1762    1.6850   -0.0538 C.3     1  LIG1        0.0000
     22 C22         1.1075   -0.4429    1.4590 C.2     1  LIG1        0.0000
     23 C23         1.3594   -1.5391    0.6918 C.2     1  LIG1        0.0000
     24 C24         1.3929   -2.7460    1.4408 C.2     1  LIG1        0.0000
     25 C25         1.1743   -2.6449    2.7828 C.2     1  LIG1        0.0000
     26 S26         0.9309   -0.9839    3.0608 S.3     1  LIG1        0.0000
     27 C27         4.1122    2.6173    1.5301 C.3     1  LIG1        0.0000
     28 N28         3.6232    3.8492    1.0801 N.pl3   1  LIG1        1.0000
     29 O29         2.4301    4.0433    1.0260 O.2     1  LIG1        0.0000
     30 O30         4.3999    4.7273    0.7423 O.2     1  LIG1       -1.0000
     31 C31         5.4850    2.4028    1.5891 C.3     1  LIG1        0.0000
     32 H           1.3024    1.0708    0.0494 H       1  LIG1        0.0000
     33 H           7.8975    0.8262    5.5209 H       1  LIG1        0.0000
     34 H           6.5693    0.7121    4.5778 H       1  LIG1        0.0000
     35 H           7.7421   -0.4197    4.4768 H       1  LIG1        0.0000
     36 H           8.0407    2.3129    3.7255 H       1  LIG1        0.0000
     37 H           5.4316   -0.7155    2.7472 H       1  LIG1        0.0000
     38 H           3.0691   -0.3277    2.6364 H       1  LIG1        0.0000
     39 H           1.4410    2.5919    2.3792 H       1  LIG1        0.0000
     40 H          -0.4731    1.4803    3.1913 H       1  LIG1        0.0000
     41 H          -2.7532    2.2026    3.3542 H       1  LIG1        0.0000
     42 H          -4.7512    3.3172    0.6220 H       1  LIG1        0.0000
     43 H          -4.6336    3.2889    2.2505 H       1  LIG1        0.0000
     44 H          -5.2005    0.9761    2.2512 H       1  LIG1        0.0000
     45 H          -7.4801    1.2017    1.6010 H       1  LIG1        0.0000
     46 H          -6.9934    2.5354    2.4078 H       1  LIG1        0.0000
     47 H          -7.1109    2.5637    0.7792 H       1  LIG1        0.0000
     48 H          -5.8602   -0.0721    0.2174 H       1  LIG1        0.0000
     49 H          -5.4910    1.2899   -0.6044 H       1  LIG1        0.0000
     50 H          -4.3077    0.4236    0.1139 H       1  LIG1        0.0000
     51 H          -3.0366    2.2680   -0.7781 H       1  LIG1        0.0000
     52 H          -0.7566    1.5478   -0.9512 H       1  LIG1        0.0000
     53 H           1.5056   -1.4989   -0.2967 H       1  LIG1        0.0000
     54 H           1.5686   -3.6283    1.0041 H       1  LIG1        0.0000
     55 H           1.1601   -3.3844    3.4558 H       1  LIG1        0.0000
     56 H           6.1240    3.1208    1.3134 H       1  LIG1        0.0000
@<TRIPOS>BOND
     1     1     2    1
     2     2     3    1
     3     3     4    2
     4     3     5    2
     5     3     6    1
     6     6     7   ar
     7     7     8   ar
     8     8     9   ar
     9     9    10    1
    10    10    11    1
    11    11    12    1
    12    12    13   ar
    13    13    14   ar
    14    14    15   ar
    15    15    16    1
    16    16    17    1
    17    17    18    1
    18    17    19    1
    19    15    20   ar
    20    20    21   ar
    21    21    12   ar
    22    11    22    1
    23    22    23    2
    24    23    24    1
    25    24    25    2
    26    25    26    1
    27    26    22    1
    28     9    27   ar
    29    27    28    1
    30    28    29   ar
    31    28    30   ar
    32    27    31   ar
    33    31     6   ar
    34    11    32    1
    35     1    33    1
    36     1    34    1
    37     1    35    1
    38     2    36    1
    39     7    37    1
    40     8    38    1
    41    10    39    1
    42    13    40    1
    43    14    41    1
    44    16    42    1
    45    16    43    1
    46    17    44    1
    47    18    45    1
    48    18    46    1
    49    18    47    1
    50    19    48    1
    51    19    49    1
    52    19    50    1
    53    20    51    1
    54    21    52    1
    55    23    53    1
    56    24    54    1
    57    25    55    1
    58    31    56    1
