@<TRIPOS>MOLECULE

  19   19
SMALL
USER_CHARGES
@<TRIPOS>ATOM
   1 O1           1.3372    -0.3638     1.2068 O.3          1    LIG   0.0000
   2 C2           1.0000     1.0000     1.0000 C.3          1    LIG   0.0000
   3 C3           1.8778     1.8778     1.8778 C.ar         1    LIG   0.0000
   4 C4           1.4631     2.2120     3.1632 C.ar         1    LIG   0.0000
   5 C5           2.2660     3.0144     3.9672 C.ar         1    LIG   0.0000
   6 C6           3.4812     3.4753     3.4697 C.ar         1    LIG   0.0000
   7 F7           4.2521     4.2430     4.2342 F            1    LIG   0.0000
   8 C8           3.8987     3.1439     2.1850 C.ar         1    LIG   0.0000
   9 C9           5.2288     3.6551     1.6559 C.3          1    LIG   0.0000
  10 F10          5.2627     3.5164     0.3336 F            1    LIG   0.0000
  11 F11          5.3668     4.9400     1.9706 F            1    LIG   0.0000
  12 F12          6.2207     2.9563     2.2006 F            1    LIG   0.0000
  13 C13          3.0939     2.3409     1.3835 C.ar         1    LIG   0.0000
  14 F14          3.4885     2.0202     0.1542 F            1    LIG   0.0000
  15 H            0.7598    -0.9412     0.6295 H            1    LIG   0.0000
  16 H            0.0396     1.1456     1.2374 H            1    LIG   0.0000
  17 H            1.1456     1.2374     0.0396 H            1    LIG   0.0000
  18 H            0.5874     1.8751     3.5093 H            1    LIG   0.0000
  19 H            1.9734     3.2573     4.8921 H            1    LIG   0.0000
@<TRIPOS>BOND
   1        1        2 1
   2        2        3 1
   3        3        4 ar
   4        4        5 ar
   5        5        6 ar
   6        6        7 1
   7        6        8 ar
   8        8        9 1
   9        9       10 1
  10        9       11 1
  11        9       12 1
  12        8       13 ar
  13       13        3 ar
  14       13       14 1
  15        1       15 1
  16        2       16 1
  17        2       17 1
  18        4       18 1
  19        5       19 1

@<TRIPOS>MOLECULE

  19   19
SMALL
USER_CHARGES
@<TRIPOS>ATOM
   1 O1           1.3372    -0.3638     1.2068 O.3          1    LIG   0.0000
   2 C2           1.0000     1.0000     1.0000 C.3          1    LIG   0.0000
   3 C3           1.8778     1.8778     1.8778 C.ar         1    LIG   0.0000
   4 C4           2.1754     1.4841     3.1788 C.ar         1    LIG   0.0000
   5 C5           2.9791     2.2864     3.9822 C.ar         1    LIG   0.0000
   6 C6           3.4766     3.4804     3.4691 C.ar         1    LIG   0.0000
   7 F7           4.2450     4.2509     4.2334 F            1    LIG   0.0000
   8 C8           3.1807     3.8775     2.1694 C.ar         1    LIG   0.0000
   9 C9           3.7318     5.1847     1.6234 C.3          1    LIG   0.0000
  10 F10          3.5073     5.2479     0.3140 F            1    LIG   0.0000
  11 F11          3.1297     6.2059     2.2263 F            1    LIG   0.0000
  12 F12          5.0407     5.2439     1.8521 F            1    LIG   0.0000
  13 C13          2.3771     3.0730     1.3681 C.ar         1    LIG   0.0000
  14 F14          2.0914     3.4475     0.1240 F            1    LIG   0.0000
  15 H            0.7598    -0.9412     0.6295 H            1    LIG   0.0000
  16 H            0.0396     1.1456     1.2374 H            1    LIG   0.0000
  17 H            1.1456     1.2374     0.0396 H            1    LIG   0.0000
  18 H            1.8114     0.6241     3.5363 H            1    LIG   0.0000
  19 H            3.1969     2.0083     4.9178 H            1    LIG   0.0000
@<TRIPOS>BOND
   1        1        2 1
   2        2        3 1
   3        3        4 ar
   4        4        5 ar
   5        5        6 ar
   6        6        7 1
   7        6        8 ar
   8        8        9 1
   9        9       10 1
  10        9       11 1
  11        9       12 1
  12        8       13 ar
  13       13        3 ar
  14       13       14 1
  15        1       15 1
  16        2       16 1
  17        2       17 1
  18        4       18 1
  19        5       19 1

@<TRIPOS>MOLECULE

  19   19
SMALL
USER_CHARGES
@<TRIPOS>ATOM
   1 O1           1.3372    -0.3638     1.2068 O.3          1    LIG   0.0000
   2 C2           1.0000     1.0000     1.0000 C.3          1    LIG   0.0000
   3 C3           1.8778     1.8778     1.8778 C.ar         1    LIG   0.0000
   4 C4           1.3340     2.9880     2.5163 C.ar         1    LIG   0.0000
   5 C5           2.1363     3.7912     3.3202 C.ar         1    LIG   0.0000
   6 C6           3.4816     3.4702     3.4743 C.ar         1    LIG   0.0000
   7 F7           4.2527     4.2351     4.2414 F            1    LIG   0.0000
   8 C8           4.0289     2.3617     2.8371 C.ar         1    LIG   0.0000
   9 C9           5.5002     2.0243     3.0154 C.3          1    LIG   0.0000
  10 F10          6.0179     1.6655     1.8440 F            1    LIG   0.0000
  11 F11          6.1467     3.0906     3.4779 F            1    LIG   0.0000
  12 F12          5.6234     1.0214     3.8803 F            1    LIG   0.0000
  13 C13          3.2240     1.5601     2.0342 C.ar         1    LIG   0.0000
  14 F14          3.7419     0.4982     1.4228 F            1    LIG   0.0000
  15 H            0.7598    -0.9412     0.6295 H            1    LIG   0.0000
  16 H            0.0396     1.1456     1.2374 H            1    LIG   0.0000
  17 H            1.1456     1.2374     0.0396 H            1    LIG   0.0000
  18 H            0.3659     3.2086     2.3973 H            1    LIG   0.0000
  19 H            1.7508     4.5900     3.7821 H            1    LIG   0.0000
@<TRIPOS>BOND
   1        1        2 1
   2        2        3 1
   3        3        4 ar
   4        4        5 ar
   5        5        6 ar
   6        6        7 1
   7        6        8 ar
   8        8        9 1
   9        9       10 1
  10        9       11 1
  11        9       12 1
  12        8       13 ar
  13       13        3 ar
  14       13       14 1
  15        1       15 1
  16        2       16 1
  17        2       17 1
  18        4       18 1
  19        5       19 1

@<TRIPOS>MOLECULE

  19   19
SMALL
USER_CHARGES
@<TRIPOS>ATOM
   1 O1           1.3372    -0.3638     1.2068 O.3          1    LIG   0.0000
   2 C2           1.0000     1.0000     1.0000 C.3          1    LIG   0.0000
   3 C3           1.8778     1.8778     1.8778 C.ar         1    LIG   0.0000
   4 C4           2.3469     1.3956     3.0958 C.ar         1    LIG   0.0000
   5 C5           3.1507     2.1979     3.8991 C.ar         1    LIG   0.0000
   6 C6           3.4755     3.4811     3.4696 C.ar         1    LIG   0.0000
   7 F7           4.2432     4.2519     4.2341 F            1    LIG   0.0000
   8 C8           3.0079     3.9667     2.2530 C.ar         1    LIG   0.0000
   9 C9           3.3715     5.3706     1.7978 C.3          1    LIG   0.0000
  10 F10          3.1239     5.4928     0.4967 F            1    LIG   0.0000
  11 F11          2.6453     6.2575     2.4724 F            1    LIG   0.0000
  12 F12          4.6633     5.5901     2.0258 F            1    LIG   0.0000
  13 C13          2.2046     3.1620     1.4516 C.ar         1    LIG   0.0000
  14 F14          1.7551     3.6211     0.2868 F            1    LIG   0.0000
  15 H            0.7598    -0.9412     0.6295 H            1    LIG   0.0000
  16 H            0.0396     1.1456     1.2374 H            1    LIG   0.0000
  17 H            1.1456     1.2374     0.0396 H            1    LIG   0.0000
  18 H            2.1061     0.4719     3.3938 H            1    LIG   0.0000
  19 H            3.4913     1.8565     4.7751 H            1    LIG   0.0000
@<TRIPOS>BOND
   1        1        2 1
   2        2        3 1
   3        3        4 ar
   4        4        5 ar
   5        5        6 ar
   6        6        7 1
   7        6        8 ar
   8        8        9 1
   9        9       10 1
  10        9       11 1
  11        9       12 1
  12        8       13 ar
  13       13        3 ar
  14       13       14 1
  15        1       15 1
  16        2       16 1
  17        2       17 1
  18        4       18 1
  19        5       19 1

@<TRIPOS>MOLECULE

  19   19
SMALL
USER_CHARGES
@<TRIPOS>ATOM
   1 O1           1.3372    -0.3638     1.2068 O.3          1    LIG   0.0000
   2 C2           1.0000     1.0000     1.0000 C.3          1    LIG   0.0000
   3 C3           1.8778     1.8778     1.8778 C.ar         1    LIG   0.0000
   4 C4           1.3956     3.0958     2.3469 C.ar         1    LIG   0.0000
   5 C5           2.1979     3.8991     3.1507 C.ar         1    LIG   0.0000
   6 C6           3.4811     3.4696     3.4755 C.ar         1    LIG   0.0000
   7 F7           4.2519     4.2341     4.2432 F            1    LIG   0.0000
   8 C8           3.9667     2.2530     3.0079 C.ar         1    LIG   0.0000
   9 C9           5.3706     1.7978     3.3715 C.3          1    LIG   0.0000
  10 F10          6.0021     1.3890     2.2746 F            1    LIG   0.0000
  11 F11          6.0383     2.8111     3.9158 F            1    LIG   0.0000
  12 F12          5.2999     0.7948     4.2421 F            1    LIG   0.0000
  13 C13          3.1620     1.4516     2.2046 C.ar         1    LIG   0.0000
  14 F14          3.6211     0.2868     1.7551 F            1    LIG   0.0000
  15 H            0.7598    -0.9412     0.6295 H            1    LIG   0.0000
  16 H            0.0396     1.1456     1.2374 H            1    LIG   0.0000
  17 H            1.1456     1.2374     0.0396 H            1    LIG   0.0000
  18 H            0.4719     3.3938     2.1061 H            1    LIG   0.0000
  19 H            1.8565     4.7751     3.4913 H            1    LIG   0.0000
@<TRIPOS>BOND
   1        1        2 1
   2        2        3 1
   3        3        4 ar
   4        4        5 ar
   5        5        6 ar
   6        6        7 1
   7        6        8 ar
   8        8        9 1
   9        9       10 1
  10        9       11 1
  11        9       12 1
  12        8       13 ar
  13       13        3 ar
  14       13       14 1
  15        1       15 1
  16        2       16 1
  17        2       17 1
  18        4       18 1
  19        5       19 1

@<TRIPOS>MOLECULE

  19   19
SMALL
USER_CHARGES
@<TRIPOS>ATOM
   1 O1           1.3372    -0.3638     1.2068 O.3          1    LIG   0.0000
   2 C2           1.0000     1.0000     1.0000 C.3          1    LIG   0.0000
   3 C3           1.8778     1.8778     1.8778 C.ar         1    LIG   0.0000
   4 C4           3.0958     2.3469     1.3956 C.ar         1    LIG   0.0000
   5 C5           3.8991     3.1507     2.1979 C.ar         1    LIG   0.0000
   6 C6           3.4696     3.4755     3.4811 C.ar         1    LIG   0.0000
   7 F7           4.2341     4.2432     4.2519 F            1    LIG   0.0000
   8 C8           2.2530     3.0079     3.9667 C.ar         1    LIG   0.0000
   9 C9           1.7978     3.3715     5.3706 C.3          1    LIG   0.0000
  10 F10          2.5175     4.3962     5.8187 F            1    LIG   0.0000
  11 F11          0.5118     3.7100     5.3460 F            1    LIG   0.0000
  12 F12          1.9656     2.3262     6.1758 F            1    LIG   0.0000
  13 C13          1.4516     2.2046     3.1620 C.ar         1    LIG   0.0000
  14 F14          0.2868     1.7551     3.6211 F            1    LIG   0.0000
  15 H            0.7598    -0.9412     0.6295 H            1    LIG   0.0000
  16 H            0.0396     1.1456     1.2374 H            1    LIG   0.0000
  17 H            1.1456     1.2374     0.0396 H            1    LIG   0.0000
  18 H            3.3938     2.1061     0.4719 H            1    LIG   0.0000
  19 H            4.7751     3.4913     1.8565 H            1    LIG   0.0000
@<TRIPOS>BOND
   1        1        2 1
   2        2        3 1
   3        3        4 ar
   4        4        5 ar
   5        5        6 ar
   6        6        7 1
   7        6        8 ar
   8        8        9 1
   9        9       10 1
  10        9       11 1
  11        9       12 1
  12        8       13 ar
  13       13        3 ar
  14       13       14 1
  15        1       15 1
  16        2       16 1
  17        2       17 1
  18        4       18 1
  19        5       19 1

@<TRIPOS>MOLECULE

  19   19
SMALL
USER_CHARGES
@<TRIPOS>ATOM
   1 O1           1.3372    -0.3638     1.2068 O.3          1    LIG   0.0000
   2 C2           1.0000     1.0000     1.0000 C.3          1    LIG   0.0000
   3 C3           1.8778     1.8778     1.8778 C.ar         1    LIG   0.0000
   4 C4           2.3835     3.0747     1.3801 C.ar         1    LIG   0.0000
   5 C5           3.1860     3.8788     2.1829 C.ar         1    LIG   0.0000
   6 C6           3.4741     3.4703     3.4817 C.ar         1    LIG   0.0000
   7 F7           4.2412     4.2353     4.2528 F            1    LIG   0.0000
   8 C8           2.9710     2.2742     3.9824 C.ar         1    LIG   0.0000
   9 C9           3.2948     1.8419     5.4032 C.3          1    LIG   0.0000
  10 F10          4.5781     1.5017     5.4815 F            1    LIG   0.0000
  11 F11          3.0509     2.8473     6.2390 F            1    LIG   0.0000
  12 F12          2.5386     0.7985     5.7323 F            1    LIG   0.0000
  13 C13          2.1684     1.4725     3.1774 C.ar         1    LIG   0.0000
  14 F14          1.6839     0.3278     3.6513 F            1    LIG   0.0000
  15 H            0.7598    -0.9412     0.6295 H            1    LIG   0.0000
  16 H            0.0396     1.1456     1.2374 H            1    LIG   0.0000
  17 H            1.1456     1.2374     0.0396 H            1    LIG   0.0000
  18 H            2.1698     3.3571     0.4449 H            1    LIG   0.0000
  19 H            3.5517     4.7403     1.8308 H            1    LIG   0.0000
@<TRIPOS>BOND
   1        1        2 1
   2        2        3 1
   3        3        4 ar
   4        4        5 ar
   5        5        6 ar
   6        6        7 1
   7        6        8 ar
   8        8        9 1
   9        9       10 1
  10        9       11 1
  11        9       12 1
  12        8       13 ar
  13       13        3 ar
  14       13       14 1
  15        1       15 1
  16        2       16 1
  17        2       17 1
  18        4       18 1
  19        5       19 1

@<TRIPOS>MOLECULE

  19   19
SMALL
USER_CHARGES
@<TRIPOS>ATOM
   1 O1           1.3372    -0.3638     1.2068 O.3          1    LIG   0.0000
   2 C2           1.0000     1.0000     1.0000 C.3          1    LIG   0.0000
   3 C3           1.8778     1.8778     1.8778 C.ar         1    LIG   0.0000
   4 C4           3.2249     1.5708     2.0425 C.ar         1    LIG   0.0000
   5 C5           4.0288     2.3740     2.8449 C.ar         1    LIG   0.0000
   6 C6           3.4692     3.4805     3.4765 C.ar         1    LIG   0.0000
   7 F7           4.2334     4.2510     4.2448 F            1    LIG   0.0000
   8 C8           2.1229     3.7901     3.3147 C.ar         1    LIG   0.0000
   9 C9           1.5264     5.0023     4.0112 C.3          1    LIG   0.0000
  10 F10          1.3930     5.9952     3.1364 F            1    LIG   0.0000
  11 F11          0.3339     4.6860     4.5079 F            1    LIG   0.0000
  12 F12          2.3303     5.3864     4.9986 F            1    LIG   0.0000
  13 C13          1.3215     2.9854     2.5114 C.ar         1    LIG   0.0000
  14 F14          0.0334     3.2771     2.3525 F            1    LIG   0.0000
  15 H            0.7598    -0.9412     0.6295 H            1    LIG   0.0000
  16 H            0.0396     1.1456     1.2374 H            1    LIG   0.0000
  17 H            1.1456     1.2374     0.0396 H            1    LIG   0.0000
  18 H            3.6153     0.7725     1.5839 H            1    LIG   0.0000
  19 H            4.9978     2.1586     2.9665 H            1    LIG   0.0000
@<TRIPOS>BOND
   1        1        2 1
   2        2        3 1
   3        3        4 ar
   4        4        5 ar
   5        5        6 ar
   6        6        7 1
   7        6        8 ar
   8        8        9 1
   9        9       10 1
  10        9       11 1
  11        9       12 1
  12        8       13 ar
  13       13        3 ar
  14       13       14 1
  15        1       15 1
  16        2       16 1
  17        2       17 1
  18        4       18 1
  19        5       19 1

@<TRIPOS>MOLECULE

  19   19
SMALL
USER_CHARGES
@<TRIPOS>ATOM
   1 O1           1.3372    -0.3638     1.2068 O.3          1    LIG   0.0000
   2 C2           1.0000     1.0000     1.0000 C.3          1    LIG   0.0000
   3 C3           1.8778     1.8778     1.8778 C.ar         1    LIG   0.0000
   4 C4           2.2120     3.1632     1.4631 C.ar         1    LIG   0.0000
   5 C5           3.0144     3.9672     2.2660 C.ar         1    LIG   0.0000
   6 C6           3.4753     3.4697     3.4812 C.ar         1    LIG   0.0000
   7 F7           4.2430     4.2342     4.2521 F            1    LIG   0.0000
   8 C8           3.1439     2.1850     3.8987 C.ar         1    LIG   0.0000
   9 C9           3.6551     1.6559     5.2288 C.3          1    LIG   0.0000
  10 F10          4.8952     1.1998     5.0773 F            1    LIG   0.0000
  11 F11          3.6500     2.6364     6.1274 F            1    LIG   0.0000
  12 F12          2.8674     0.6686     5.6455 F            1    LIG   0.0000
  13 C13          2.3409     1.3835     3.0939 C.ar         1    LIG   0.0000
  14 F14          2.0202     0.1542     3.4885 F            1    LIG   0.0000
  15 H            0.7598    -0.9412     0.6295 H            1    LIG   0.0000
  16 H            0.0396     1.1456     1.2374 H            1    LIG   0.0000
  17 H            1.1456     1.2374     0.0396 H            1    LIG   0.0000
  18 H            1.8751     3.5093     0.5874 H            1    LIG   0.0000
  19 H            3.2573     4.8921     1.9734 H            1    LIG   0.0000
@<TRIPOS>BOND
   1        1        2 1
   2        2        3 1
   3        3        4 ar
   4        4        5 ar
   5        5        6 ar
   6        6        7 1
   7        6        8 ar
   8        8        9 1
   9        9       10 1
  10        9       11 1
  11        9       12 1
  12        8       13 ar
  13       13        3 ar
  14       13       14 1
  15        1       15 1
  16        2       16 1
  17        2       17 1
  18        4       18 1
  19        5       19 1

@<TRIPOS>MOLECULE

  19   19
SMALL
USER_CHARGES
@<TRIPOS>ATOM
   1 O1           1.3372    -0.3638     1.2068 O.3          1    LIG   0.0000
   2 C2           1.0000     1.0000     1.0000 C.3          1    LIG   0.0000
   3 C3           1.8778     1.8778     1.8778 C.ar         1    LIG   0.0000
   4 C4           3.1632     1.4631     2.2120 C.ar         1    LIG   0.0000
   5 C5           3.9672     2.2660     3.0144 C.ar         1    LIG   0.0000
   6 C6           3.4697     3.4812     3.4753 C.ar         1    LIG   0.0000
   7 F7           4.2342     4.2521     4.2430 F            1    LIG   0.0000
   8 C8           2.1850     3.8987     3.1439 C.ar         1    LIG   0.0000
   9 C9           1.6559     5.2288     3.6551 C.3          1    LIG   0.0000
  10 F10          1.4625     6.0528     2.6292 F            1    LIG   0.0000
  11 F11          0.5037     5.0331     4.2899 F            1    LIG   0.0000
  12 F12          2.5386     5.7643     4.4935 F            1    LIG   0.0000
  13 C13          1.3835     3.0939     2.3409 C.ar         1    LIG   0.0000
  14 F14          0.1542     3.4885     2.0202 F            1    LIG   0.0000
  15 H            0.7598    -0.9412     0.6295 H            1    LIG   0.0000
  16 H            0.0396     1.1456     1.2374 H            1    LIG   0.0000
  17 H            1.1456     1.2374     0.0396 H            1    LIG   0.0000
  18 H            3.5093     0.5874     1.8751 H            1    LIG   0.0000
  19 H            4.8921     1.9734     3.2573 H            1    LIG   0.0000
@<TRIPOS>BOND
   1        1        2 1
   2        2        3 1
   3        3        4 ar
   4        4        5 ar
   5        5        6 ar
   6        6        7 1
   7        6        8 ar
   8        8        9 1
   9        9       10 1
  10        9       11 1
  11        9       12 1
  12        8       13 ar
  13       13        3 ar
  14       13       14 1
  15        1       15 1
  16        2       16 1
  17        2       17 1
  18        4       18 1
  19        5       19 1

@<TRIPOS>MOLECULE

  19   19
SMALL
USER_CHARGES
@<TRIPOS>ATOM
   1 O1           1.3372    -0.3638     1.2068 O.3          1    LIG   0.0000
   2 C2           1.0000     1.0000     1.0000 C.3          1    LIG   0.0000
   3 C3           1.8778     1.8778     1.8778 C.ar         1    LIG   0.0000
   4 C4           2.8287     1.2978     2.7118 C.ar         1    LIG   0.0000
   5 C5           3.6327     2.1004     3.5147 C.ar         1    LIG   0.0000
   6 C6           3.4721     3.4820     3.4720 C.ar         1    LIG   0.0000
   7 F7           4.2380     4.2534     4.2378 F            1    LIG   0.0000
   8 C8           2.5223     4.0653     2.6401 C.ar         1    LIG   0.0000
   9 C9           2.3591     5.5761     2.6047 C.3          1    LIG   0.0000
  10 F10          2.0933     5.9643     1.3607 F            1    LIG   0.0000
  11 F11          1.3576     5.9326     3.4039 F            1    LIG   0.0000
  12 F12          3.4835     6.1533     3.0186 F            1    LIG   0.0000
  13 C13          1.7200     3.2603     1.8380 C.ar         1    LIG   0.0000
  14 F14          0.8103     3.8127     1.0399 F            1    LIG   0.0000
  15 H            0.7598    -0.9412     0.6295 H            1    LIG   0.0000
  16 H            0.0396     1.1456     1.2374 H            1    LIG   0.0000
  17 H            1.1456     1.2374     0.0396 H            1    LIG   0.0000
  18 H            2.9341     0.3037     2.7341 H            1    LIG   0.0000
  19 H            4.3181     1.6892     4.1155 H            1    LIG   0.0000
@<TRIPOS>BOND
   1        1        2 1
   2        2        3 1
   3        3        4 ar
   4        4        5 ar
   5        5        6 ar
   6        6        7 1
   7        6        8 ar
   8        8        9 1
   9        9       10 1
  10        9       11 1
  11        9       12 1
  12        8       13 ar
  13       13        3 ar
  14       13       14 1
  15        1       15 1
  16        2       16 1
  17        2       17 1
  18        4       18 1
  19        5       19 1

@<TRIPOS>MOLECULE

  19   19
SMALL
USER_CHARGES
@<TRIPOS>ATOM
   1 O1           1.3372    -0.3638     1.2068 O.3          1    LIG   0.0000
   2 C2           1.0000     1.0000     1.0000 C.3          1    LIG   0.0000
   3 C3           1.8778     1.8778     1.8778 C.ar         1    LIG   0.0000
   4 C4           3.0747     1.3801     2.3835 C.ar         1    LIG   0.0000
   5 C5           3.8788     2.1829     3.1860 C.ar         1    LIG   0.0000
   6 C6           3.4703     3.4817     3.4741 C.ar         1    LIG   0.0000
   7 F7           4.2353     4.2528     4.2412 F            1    LIG   0.0000
   8 C8           2.2742     3.9824     2.9710 C.ar         1    LIG   0.0000
   9 C9           1.8419     5.4032     3.2948 C.3          1    LIG   0.0000
  10 F10          1.6103     6.0646     2.1643 F            1    LIG   0.0000
  11 F11          0.7315     5.3729     4.0262 F            1    LIG   0.0000
  12 F12          2.8057     6.0153     3.9770 F            1    LIG   0.0000
  13 C13          1.4725     3.1774     2.1684 C.ar         1    LIG   0.0000
  14 F14          0.3278     3.6513     1.6839 F            1    LIG   0.0000
  15 H            0.7598    -0.9412     0.6295 H            1    LIG   0.0000
  16 H            0.0396     1.1456     1.2374 H            1    LIG   0.0000
  17 H            1.1456     1.2374     0.0396 H            1    LIG   0.0000
  18 H            3.3571     0.4449     2.1698 H            1    LIG   0.0000
  19 H            4.7403     1.8308     3.5517 H            1    LIG   0.0000
@<TRIPOS>BOND
   1        1        2 1
   2        2        3 1
   3        3        4 ar
   4        4        5 ar
   5        5        6 ar
   6        6        7 1
   7        6        8 ar
   8        8        9 1
   9        9       10 1
  10        9       11 1
  11        9       12 1
  12        8       13 ar
  13       13        3 ar
  14       13       14 1
  15        1       15 1
  16        2       16 1
  17        2       17 1
  18        4       18 1
  19        5       19 1

@<TRIPOS>MOLECULE

  19   19
SMALL
USER_CHARGES
@<TRIPOS>ATOM
   1 O1           1.3372    -0.3638     1.2068 O.3          1    LIG   0.0000
   2 C2           1.0000     1.0000     1.0000 C.3          1    LIG   0.0000
   3 C3           1.8778     1.8778     1.8778 C.ar         1    LIG   0.0000
   4 C4           2.5163     1.3340     2.9880 C.ar         1    LIG   0.0000
   5 C5           3.3202     2.1363     3.7912 C.ar         1    LIG   0.0000
   6 C6           3.4743     3.4816     3.4702 C.ar         1    LIG   0.0000
   7 F7           4.2414     4.2527     4.2351 F            1    LIG   0.0000
   8 C8           2.8371     4.0289     2.3617 C.ar         1    LIG   0.0000
   9 C9           3.0154     5.5002     2.0243 C.3          1    LIG   0.0000
  10 F10          2.7535     5.6943     0.7348 F            1    LIG   0.0000
  11 F11          2.1808     6.2282     2.7606 F            1    LIG   0.0000
  12 F12          4.2680     5.8655     2.2821 F            1    LIG   0.0000
  13 C13          2.0342     3.2240     1.5601 C.ar         1    LIG   0.0000
  14 F14          1.4228     3.7419     0.4982 F            1    LIG   0.0000
  15 H            0.7598    -0.9412     0.6295 H            1    LIG   0.0000
  16 H            0.0396     1.1456     1.2374 H            1    LIG   0.0000
  17 H            1.1456     1.2374     0.0396 H            1    LIG   0.0000
  18 H            2.3973     0.3659     3.2086 H            1    LIG   0.0000
  19 H            3.7821     1.7508     4.5900 H            1    LIG   0.0000
@<TRIPOS>BOND
   1        1        2 1
   2        2        3 1
   3        3        4 ar
   4        4        5 ar
   5        5        6 ar
   6        6        7 1
   7        6        8 ar
   8        8        9 1
   9        9       10 1
  10        9       11 1
  11        9       12 1
  12        8       13 ar
  13       13        3 ar
  14       13       14 1
  15        1       15 1
  16        2       16 1
  17        2       17 1
  18        4       18 1
  19        5       19 1

