@<TRIPOS>MOLECULE
*****
 19 19 0 0 0
SMALL
USER_CHARGES

@<TRIPOS>ATOM
      1 O1          1.3372   -0.3638    1.2068 O.3     1  LIG1        0.0000
      2 C2          1.0000    1.0000    1.0000 C.3     1  LIG1        0.0000
      3 C3          1.8778    1.8778    1.8778 C.ar    1  LIG1        0.0000
      4 C4          2.1754    1.4841    3.1788 C.ar    1  LIG1        0.0000
      5 C5          2.9791    2.2864    3.9822 C.ar    1  LIG1        0.0000
      6 C6          3.4766    3.4804    3.4691 C.ar    1  LIG1        0.0000
      7 F7          4.2450    4.2509    4.2334 F       1  LIG1        0.0000
      8 C8          3.1807    3.8775    2.1694 C.ar    1  LIG1        0.0000
      9 C9          3.7318    5.1847    1.6234 C.3     1  LIG1        0.0000
     10 F10         3.5073    5.2479    0.3140 F       1  LIG1        0.0000
     11 F11         3.1297    6.2059    2.2263 F       1  LIG1        0.0000
     12 F12         5.0407    5.2439    1.8521 F       1  LIG1        0.0000
     13 C13         2.3771    3.0730    1.3681 C.ar    1  LIG1        0.0000
     14 F14         2.0914    3.4475    0.1240 F       1  LIG1        0.0000
     15 H           0.7598   -0.9412    0.6295 H       1  LIG1        0.0000
     16 H           0.0396    1.1456    1.2374 H       1  LIG1        0.0000
     17 H           1.1456    1.2374    0.0396 H       1  LIG1        0.0000
     18 H           1.8114    0.6241    3.5363 H       1  LIG1        0.0000
     19 H           3.1969    2.0083    4.9178 H       1  LIG1        0.0000
@<TRIPOS>BOND
     1     1     2    1
     2     2     3    1
     3     3     4   ar
     4     4     5   ar
     5     5     6   ar
     6     6     7    1
     7     6     8   ar
     8     8     9    1
     9     9    10    1
    10     9    11    1
    11     9    12    1
    12     8    13   ar
    13    13     3   ar
    14    13    14    1
    15     1    15    1
    16     2    16    1
    17     2    17    1
    18     4    18    1
    19     5    19    1
