@<TRIPOS>MOLECULE
*****
 19 19 0 0 0
SMALL
USER_CHARGES

@<TRIPOS>ATOM
      1 O1          1.3372   -0.3638    1.2068 O.3     1  LIG1        0.0000
      2 C2          1.0000    1.0000    1.0000 C.3     1  LIG1        0.0000
      3 C3          1.8778    1.8778    1.8778 C.ar    1  LIG1        0.0000
      4 C4          2.8287    1.2978    2.7118 C.ar    1  LIG1        0.0000
      5 C5          3.6327    2.1004    3.5147 C.ar    1  LIG1        0.0000
      6 C6          3.4721    3.4820    3.4720 C.ar    1  LIG1        0.0000
      7 F7          4.2380    4.2534    4.2378 F       1  LIG1        0.0000
      8 C8          2.5223    4.0653    2.6401 C.ar    1  LIG1        0.0000
      9 C9          2.3591    5.5761    2.6047 C.3     1  LIG1        0.0000
     10 F10         2.0933    5.9643    1.3607 F       1  LIG1        0.0000
     11 F11         1.3576    5.9326    3.4039 F       1  LIG1        0.0000
     12 F12         3.4835    6.1533    3.0186 F       1  LIG1        0.0000
     13 C13         1.7200    3.2603    1.8380 C.ar    1  LIG1        0.0000
     14 F14         0.8103    3.8127    1.0399 F       1  LIG1        0.0000
     15 H           0.7598   -0.9412    0.6295 H       1  LIG1        0.0000
     16 H           0.0396    1.1456    1.2374 H       1  LIG1        0.0000
     17 H           1.1456    1.2374    0.0396 H       1  LIG1        0.0000
     18 H           2.9341    0.3037    2.7341 H       1  LIG1        0.0000
     19 H           4.3181    1.6892    4.1155 H       1  LIG1        0.0000
@<TRIPOS>BOND
     1     1     2    1
     2     2     3    1
     3     3     4   ar
     4     4     5   ar
     5     5     6   ar
     6     6     7    1
     7     6     8   ar
     8     8     9    1
     9     9    10    1
    10     9    11    1
    11     9    12    1
    12     8    13   ar
    13    13     3   ar
    14    13    14    1
    15     1    15    1
    16     2    16    1
    17     2    17    1
    18     4    18    1
    19     5    19    1
