@<TRIPOS>MOLECULE
*****
 19 19 0 0 0
SMALL
USER_CHARGES

@<TRIPOS>ATOM
      1 O1          1.3372   -0.3638    1.2068 O.3     1  LIG1        0.0000
      2 C2          1.0000    1.0000    1.0000 C.3     1  LIG1        0.0000
      3 C3          1.8778    1.8778    1.8778 C.ar    1  LIG1        0.0000
      4 C4          1.3340    2.9880    2.5163 C.ar    1  LIG1        0.0000
      5 C5          2.1363    3.7912    3.3202 C.ar    1  LIG1        0.0000
      6 C6          3.4816    3.4702    3.4743 C.ar    1  LIG1        0.0000
      7 F7          4.2527    4.2351    4.2414 F       1  LIG1        0.0000
      8 C8          4.0289    2.3617    2.8371 C.ar    1  LIG1        0.0000
      9 C9          5.5002    2.0243    3.0154 C.3     1  LIG1        0.0000
     10 F10         6.0179    1.6655    1.8440 F       1  LIG1        0.0000
     11 F11         6.1467    3.0906    3.4779 F       1  LIG1        0.0000
     12 F12         5.6234    1.0214    3.8803 F       1  LIG1        0.0000
     13 C13         3.2240    1.5601    2.0342 C.ar    1  LIG1        0.0000
     14 F14         3.7419    0.4982    1.4228 F       1  LIG1        0.0000
     15 H           0.7598   -0.9412    0.6295 H       1  LIG1        0.0000
     16 H           0.0396    1.1456    1.2374 H       1  LIG1        0.0000
     17 H           1.1456    1.2374    0.0396 H       1  LIG1        0.0000
     18 H           0.3659    3.2086    2.3973 H       1  LIG1        0.0000
     19 H           1.7508    4.5900    3.7821 H       1  LIG1        0.0000
@<TRIPOS>BOND
     1     1     2    1
     2     2     3    1
     3     3     4   ar
     4     4     5   ar
     5     5     6   ar
     6     6     7    1
     7     6     8   ar
     8     8     9    1
     9     9    10    1
    10     9    11    1
    11     9    12    1
    12     8    13   ar
    13    13     3   ar
    14    13    14    1
    15     1    15    1
    16     2    16    1
    17     2    17    1
    18     4    18    1
    19     5    19    1
