@<TRIPOS>MOLECULE
*****
 19 19 0 0 0
SMALL
USER_CHARGES

@<TRIPOS>ATOM
      1 O1          1.3372   -0.3638    1.2068 O.3     1  LIG1        0.0000
      2 C2          1.0000    1.0000    1.0000 C.3     1  LIG1        0.0000
      3 C3          1.8778    1.8778    1.8778 C.ar    1  LIG1        0.0000
      4 C4          1.4631    2.2120    3.1632 C.ar    1  LIG1        0.0000
      5 C5          2.2660    3.0144    3.9672 C.ar    1  LIG1        0.0000
      6 C6          3.4812    3.4753    3.4697 C.ar    1  LIG1        0.0000
      7 F7          4.2521    4.2430    4.2342 F       1  LIG1        0.0000
      8 C8          3.8987    3.1439    2.1850 C.ar    1  LIG1        0.0000
      9 C9          5.2288    3.6551    1.6559 C.3     1  LIG1        0.0000
     10 F10         5.2627    3.5164    0.3336 F       1  LIG1        0.0000
     11 F11         5.3668    4.9400    1.9706 F       1  LIG1        0.0000
     12 F12         6.2207    2.9563    2.2006 F       1  LIG1        0.0000
     13 C13         3.0939    2.3409    1.3835 C.ar    1  LIG1        0.0000
     14 F14         3.4885    2.0202    0.1542 F       1  LIG1        0.0000
     15 H           0.7598   -0.9412    0.6295 H       1  LIG1        0.0000
     16 H           0.0396    1.1456    1.2374 H       1  LIG1        0.0000
     17 H           1.1456    1.2374    0.0396 H       1  LIG1        0.0000
     18 H           0.5874    1.8751    3.5093 H       1  LIG1        0.0000
     19 H           1.9734    3.2573    4.8921 H       1  LIG1        0.0000
@<TRIPOS>BOND
     1     1     2    1
     2     2     3    1
     3     3     4   ar
     4     4     5   ar
     5     5     6   ar
     6     6     7    1
     7     6     8   ar
     8     8     9    1
     9     9    10    1
    10     9    11    1
    11     9    12    1
    12     8    13   ar
    13    13     3   ar
    14    13    14    1
    15     1    15    1
    16     2    16    1
    17     2    17    1
    18     4    18    1
    19     5    19    1
