@<TRIPOS>MOLECULE
*****
 19 19 0 0 0
SMALL
USER_CHARGES

@<TRIPOS>ATOM
      1 O1          1.3372   -0.3638    1.2068 O.3     1  LIG1        0.0000
      2 C2          1.0000    1.0000    1.0000 C.3     1  LIG1        0.0000
      3 C3          1.8778    1.8778    1.8778 C.ar    1  LIG1        0.0000
      4 C4          2.2120    3.1632    1.4631 C.ar    1  LIG1        0.0000
      5 C5          3.0144    3.9672    2.2660 C.ar    1  LIG1        0.0000
      6 C6          3.4753    3.4697    3.4812 C.ar    1  LIG1        0.0000
      7 F7          4.2430    4.2342    4.2521 F       1  LIG1        0.0000
      8 C8          3.1439    2.1850    3.8987 C.ar    1  LIG1        0.0000
      9 C9          3.6551    1.6559    5.2288 C.3     1  LIG1        0.0000
     10 F10         4.8952    1.1998    5.0773 F       1  LIG1        0.0000
     11 F11         3.6500    2.6364    6.1274 F       1  LIG1        0.0000
     12 F12         2.8674    0.6686    5.6455 F       1  LIG1        0.0000
     13 C13         2.3409    1.3835    3.0939 C.ar    1  LIG1        0.0000
     14 F14         2.0202    0.1542    3.4885 F       1  LIG1        0.0000
     15 H           0.7598   -0.9412    0.6295 H       1  LIG1        0.0000
     16 H           0.0396    1.1456    1.2374 H       1  LIG1        0.0000
     17 H           1.1456    1.2374    0.0396 H       1  LIG1        0.0000
     18 H           1.8751    3.5093    0.5874 H       1  LIG1        0.0000
     19 H           3.2573    4.8921    1.9734 H       1  LIG1        0.0000
@<TRIPOS>BOND
     1     1     2    1
     2     2     3    1
     3     3     4   ar
     4     4     5   ar
     5     5     6   ar
     6     6     7    1
     7     6     8   ar
     8     8     9    1
     9     9    10    1
    10     9    11    1
    11     9    12    1
    12     8    13   ar
    13    13     3   ar
    14    13    14    1
    15     1    15    1
    16     2    16    1
    17     2    17    1
    18     4    18    1
    19     5    19    1
