@<TRIPOS>MOLECULE
*****
 19 19 0 0 0
SMALL
USER_CHARGES

@<TRIPOS>ATOM
      1 O1          1.3372   -0.3638    1.2068 O.3     1  LIG1        0.0000
      2 C2          1.0000    1.0000    1.0000 C.3     1  LIG1        0.0000
      3 C3          1.8778    1.8778    1.8778 C.ar    1  LIG1        0.0000
      4 C4          2.3469    1.3956    3.0958 C.ar    1  LIG1        0.0000
      5 C5          3.1507    2.1979    3.8991 C.ar    1  LIG1        0.0000
      6 C6          3.4755    3.4811    3.4696 C.ar    1  LIG1        0.0000
      7 F7          4.2432    4.2519    4.2341 F       1  LIG1        0.0000
      8 C8          3.0079    3.9667    2.2530 C.ar    1  LIG1        0.0000
      9 C9          3.3715    5.3706    1.7978 C.3     1  LIG1        0.0000
     10 F10         3.1239    5.4928    0.4967 F       1  LIG1        0.0000
     11 F11         2.6453    6.2575    2.4724 F       1  LIG1        0.0000
     12 F12         4.6633    5.5901    2.0258 F       1  LIG1        0.0000
     13 C13         2.2046    3.1620    1.4516 C.ar    1  LIG1        0.0000
     14 F14         1.7551    3.6211    0.2868 F       1  LIG1        0.0000
     15 H           0.7598   -0.9412    0.6295 H       1  LIG1        0.0000
     16 H           0.0396    1.1456    1.2374 H       1  LIG1        0.0000
     17 H           1.1456    1.2374    0.0396 H       1  LIG1        0.0000
     18 H           2.1061    0.4719    3.3938 H       1  LIG1        0.0000
     19 H           3.4913    1.8565    4.7751 H       1  LIG1        0.0000
@<TRIPOS>BOND
     1     1     2    1
     2     2     3    1
     3     3     4   ar
     4     4     5   ar
     5     5     6   ar
     6     6     7    1
     7     6     8   ar
     8     8     9    1
     9     9    10    1
    10     9    11    1
    11     9    12    1
    12     8    13   ar
    13    13     3   ar
    14    13    14    1
    15     1    15    1
    16     2    16    1
    17     2    17    1
    18     4    18    1
    19     5    19    1
