@<TRIPOS>MOLECULE
*****
 19 19 0 0 0
SMALL
USER_CHARGES

@<TRIPOS>ATOM
      1 O1          1.3372   -0.3638    1.2068 O.3     1  LIG1        0.0000
      2 C2          1.0000    1.0000    1.0000 C.3     1  LIG1        0.0000
      3 C3          1.8778    1.8778    1.8778 C.ar    1  LIG1        0.0000
      4 C4          1.3956    3.0958    2.3469 C.ar    1  LIG1        0.0000
      5 C5          2.1979    3.8991    3.1507 C.ar    1  LIG1        0.0000
      6 C6          3.4811    3.4696    3.4755 C.ar    1  LIG1        0.0000
      7 F7          4.2519    4.2341    4.2432 F       1  LIG1        0.0000
      8 C8          3.9667    2.2530    3.0079 C.ar    1  LIG1        0.0000
      9 C9          5.3706    1.7978    3.3715 C.3     1  LIG1        0.0000
     10 F10         6.0021    1.3890    2.2746 F       1  LIG1        0.0000
     11 F11         6.0383    2.8111    3.9158 F       1  LIG1        0.0000
     12 F12         5.2999    0.7948    4.2421 F       1  LIG1        0.0000
     13 C13         3.1620    1.4516    2.2046 C.ar    1  LIG1        0.0000
     14 F14         3.6211    0.2868    1.7551 F       1  LIG1        0.0000
     15 H           0.7598   -0.9412    0.6295 H       1  LIG1        0.0000
     16 H           0.0396    1.1456    1.2374 H       1  LIG1        0.0000
     17 H           1.1456    1.2374    0.0396 H       1  LIG1        0.0000
     18 H           0.4719    3.3938    2.1061 H       1  LIG1        0.0000
     19 H           1.8565    4.7751    3.4913 H       1  LIG1        0.0000
@<TRIPOS>BOND
     1     1     2    1
     2     2     3    1
     3     3     4   ar
     4     4     5   ar
     5     5     6   ar
     6     6     7    1
     7     6     8   ar
     8     8     9    1
     9     9    10    1
    10     9    11    1
    11     9    12    1
    12     8    13   ar
    13    13     3   ar
    14    13    14    1
    15     1    15    1
    16     2    16    1
    17     2    17    1
    18     4    18    1
    19     5    19    1
