@<TRIPOS>MOLECULE
*****
 19 19 0 0 0
SMALL
USER_CHARGES

@<TRIPOS>ATOM
      1 O1          1.3372   -0.3638    1.2068 O.3     1  LIG1        0.0000
      2 C2          1.0000    1.0000    1.0000 C.3     1  LIG1        0.0000
      3 C3          1.8778    1.8778    1.8778 C.ar    1  LIG1        0.0000
      4 C4          3.0958    2.3469    1.3956 C.ar    1  LIG1        0.0000
      5 C5          3.8991    3.1507    2.1979 C.ar    1  LIG1        0.0000
      6 C6          3.4696    3.4755    3.4811 C.ar    1  LIG1        0.0000
      7 F7          4.2341    4.2432    4.2519 F       1  LIG1        0.0000
      8 C8          2.2530    3.0079    3.9667 C.ar    1  LIG1        0.0000
      9 C9          1.7978    3.3715    5.3706 C.3     1  LIG1        0.0000
     10 F10         2.5175    4.3962    5.8187 F       1  LIG1        0.0000
     11 F11         0.5118    3.7100    5.3460 F       1  LIG1        0.0000
     12 F12         1.9656    2.3262    6.1758 F       1  LIG1        0.0000
     13 C13         1.4516    2.2046    3.1620 C.ar    1  LIG1        0.0000
     14 F14         0.2868    1.7551    3.6211 F       1  LIG1        0.0000
     15 H           0.7598   -0.9412    0.6295 H       1  LIG1        0.0000
     16 H           0.0396    1.1456    1.2374 H       1  LIG1        0.0000
     17 H           1.1456    1.2374    0.0396 H       1  LIG1        0.0000
     18 H           3.3938    2.1061    0.4719 H       1  LIG1        0.0000
     19 H           4.7751    3.4913    1.8565 H       1  LIG1        0.0000
@<TRIPOS>BOND
     1     1     2    1
     2     2     3    1
     3     3     4   ar
     4     4     5   ar
     5     5     6   ar
     6     6     7    1
     7     6     8   ar
     8     8     9    1
     9     9    10    1
    10     9    11    1
    11     9    12    1
    12     8    13   ar
    13    13     3   ar
    14    13    14    1
    15     1    15    1
    16     2    16    1
    17     2    17    1
    18     4    18    1
    19     5    19    1
