@<TRIPOS>MOLECULE
*****
 19 19 0 0 0
SMALL
USER_CHARGES

@<TRIPOS>ATOM
      1 O1          1.3372   -0.3638    1.2068 O.3     1  LIG1        0.0000
      2 C2          1.0000    1.0000    1.0000 C.3     1  LIG1        0.0000
      3 C3          1.8778    1.8778    1.8778 C.ar    1  LIG1        0.0000
      4 C4          3.1632    1.4631    2.2120 C.ar    1  LIG1        0.0000
      5 C5          3.9672    2.2660    3.0144 C.ar    1  LIG1        0.0000
      6 C6          3.4697    3.4812    3.4753 C.ar    1  LIG1        0.0000
      7 F7          4.2342    4.2521    4.2430 F       1  LIG1        0.0000
      8 C8          2.1850    3.8987    3.1439 C.ar    1  LIG1        0.0000
      9 C9          1.6559    5.2288    3.6551 C.3     1  LIG1        0.0000
     10 F10         1.4625    6.0528    2.6292 F       1  LIG1        0.0000
     11 F11         0.5037    5.0331    4.2899 F       1  LIG1        0.0000
     12 F12         2.5386    5.7643    4.4935 F       1  LIG1        0.0000
     13 C13         1.3835    3.0939    2.3409 C.ar    1  LIG1        0.0000
     14 F14         0.1542    3.4885    2.0202 F       1  LIG1        0.0000
     15 H           0.7598   -0.9412    0.6295 H       1  LIG1        0.0000
     16 H           0.0396    1.1456    1.2374 H       1  LIG1        0.0000
     17 H           1.1456    1.2374    0.0396 H       1  LIG1        0.0000
     18 H           3.5093    0.5874    1.8751 H       1  LIG1        0.0000
     19 H           4.8921    1.9734    3.2573 H       1  LIG1        0.0000
@<TRIPOS>BOND
     1     1     2    1
     2     2     3    1
     3     3     4   ar
     4     4     5   ar
     5     5     6   ar
     6     6     7    1
     7     6     8   ar
     8     8     9    1
     9     9    10    1
    10     9    11    1
    11     9    12    1
    12     8    13   ar
    13    13     3   ar
    14    13    14    1
    15     1    15    1
    16     2    16    1
    17     2    17    1
    18     4    18    1
    19     5    19    1
