@<TRIPOS>MOLECULE
*****
 19 19 0 0 0
SMALL
USER_CHARGES

@<TRIPOS>ATOM
      1 O1          1.3372   -0.3638    1.2068 O.3     1  LIG1        0.0000
      2 C2          1.0000    1.0000    1.0000 C.3     1  LIG1        0.0000
      3 C3          1.8778    1.8778    1.8778 C.ar    1  LIG1        0.0000
      4 C4          3.2249    1.5708    2.0425 C.ar    1  LIG1        0.0000
      5 C5          4.0288    2.3740    2.8449 C.ar    1  LIG1        0.0000
      6 C6          3.4692    3.4805    3.4765 C.ar    1  LIG1        0.0000
      7 F7          4.2334    4.2510    4.2448 F       1  LIG1        0.0000
      8 C8          2.1229    3.7901    3.3147 C.ar    1  LIG1        0.0000
      9 C9          1.5264    5.0023    4.0112 C.3     1  LIG1        0.0000
     10 F10         1.3930    5.9952    3.1364 F       1  LIG1        0.0000
     11 F11         0.3339    4.6860    4.5079 F       1  LIG1        0.0000
     12 F12         2.3303    5.3864    4.9986 F       1  LIG1        0.0000
     13 C13         1.3215    2.9854    2.5114 C.ar    1  LIG1        0.0000
     14 F14         0.0334    3.2771    2.3525 F       1  LIG1        0.0000
     15 H           0.7598   -0.9412    0.6295 H       1  LIG1        0.0000
     16 H           0.0396    1.1456    1.2374 H       1  LIG1        0.0000
     17 H           1.1456    1.2374    0.0396 H       1  LIG1        0.0000
     18 H           3.6153    0.7725    1.5839 H       1  LIG1        0.0000
     19 H           4.9978    2.1586    2.9665 H       1  LIG1        0.0000
@<TRIPOS>BOND
     1     1     2    1
     2     2     3    1
     3     3     4   ar
     4     4     5   ar
     5     5     6   ar
     6     6     7    1
     7     6     8   ar
     8     8     9    1
     9     9    10    1
    10     9    11    1
    11     9    12    1
    12     8    13   ar
    13    13     3   ar
    14    13    14    1
    15     1    15    1
    16     2    16    1
    17     2    17    1
    18     4    18    1
    19     5    19    1
