@<TRIPOS>MOLECULE
*****
 19 19 0 0 0
SMALL
USER_CHARGES

@<TRIPOS>ATOM
      1 O1          1.3372   -0.3638    1.2068 O.3     1  LIG1        0.0000
      2 C2          1.0000    1.0000    1.0000 C.3     1  LIG1        0.0000
      3 C3          1.8778    1.8778    1.8778 C.ar    1  LIG1        0.0000
      4 C4          2.5163    1.3340    2.9880 C.ar    1  LIG1        0.0000
      5 C5          3.3202    2.1363    3.7912 C.ar    1  LIG1        0.0000
      6 C6          3.4743    3.4816    3.4702 C.ar    1  LIG1        0.0000
      7 F7          4.2414    4.2527    4.2351 F       1  LIG1        0.0000
      8 C8          2.8371    4.0289    2.3617 C.ar    1  LIG1        0.0000
      9 C9          3.0154    5.5002    2.0243 C.3     1  LIG1        0.0000
     10 F10         2.7535    5.6943    0.7348 F       1  LIG1        0.0000
     11 F11         2.1808    6.2282    2.7606 F       1  LIG1        0.0000
     12 F12         4.2680    5.8655    2.2821 F       1  LIG1        0.0000
     13 C13         2.0342    3.2240    1.5601 C.ar    1  LIG1        0.0000
     14 F14         1.4228    3.7419    0.4982 F       1  LIG1        0.0000
     15 H           0.7598   -0.9412    0.6295 H       1  LIG1        0.0000
     16 H           0.0396    1.1456    1.2374 H       1  LIG1        0.0000
     17 H           1.1456    1.2374    0.0396 H       1  LIG1        0.0000
     18 H           2.3973    0.3659    3.2086 H       1  LIG1        0.0000
     19 H           3.7821    1.7508    4.5900 H       1  LIG1        0.0000
@<TRIPOS>BOND
     1     1     2    1
     2     2     3    1
     3     3     4   ar
     4     4     5   ar
     5     5     6   ar
     6     6     7    1
     7     6     8   ar
     8     8     9    1
     9     9    10    1
    10     9    11    1
    11     9    12    1
    12     8    13   ar
    13    13     3   ar
    14    13    14    1
    15     1    15    1
    16     2    16    1
    17     2    17    1
    18     4    18    1
    19     5    19    1
