@<TRIPOS>MOLECULE
*****
 19 19 0 0 0
SMALL
USER_CHARGES

@<TRIPOS>ATOM
      1 O1          1.3372   -0.3638    1.2068 O.3     1  LIG1        0.0000
      2 C2          1.0000    1.0000    1.0000 C.3     1  LIG1        0.0000
      3 C3          1.8778    1.8778    1.8778 C.ar    1  LIG1        0.0000
      4 C4          2.3835    3.0747    1.3801 C.ar    1  LIG1        0.0000
      5 C5          3.1860    3.8788    2.1829 C.ar    1  LIG1        0.0000
      6 C6          3.4741    3.4703    3.4817 C.ar    1  LIG1        0.0000
      7 F7          4.2412    4.2353    4.2528 F       1  LIG1        0.0000
      8 C8          2.9710    2.2742    3.9824 C.ar    1  LIG1        0.0000
      9 C9          3.2948    1.8419    5.4032 C.3     1  LIG1        0.0000
     10 F10         4.5781    1.5017    5.4815 F       1  LIG1        0.0000
     11 F11         3.0509    2.8473    6.2390 F       1  LIG1        0.0000
     12 F12         2.5386    0.7985    5.7323 F       1  LIG1        0.0000
     13 C13         2.1684    1.4725    3.1774 C.ar    1  LIG1        0.0000
     14 F14         1.6839    0.3278    3.6513 F       1  LIG1        0.0000
     15 H           0.7598   -0.9412    0.6295 H       1  LIG1        0.0000
     16 H           0.0396    1.1456    1.2374 H       1  LIG1        0.0000
     17 H           1.1456    1.2374    0.0396 H       1  LIG1        0.0000
     18 H           2.1698    3.3571    0.4449 H       1  LIG1        0.0000
     19 H           3.5517    4.7403    1.8308 H       1  LIG1        0.0000
@<TRIPOS>BOND
     1     1     2    1
     2     2     3    1
     3     3     4   ar
     4     4     5   ar
     5     5     6   ar
     6     6     7    1
     7     6     8   ar
     8     8     9    1
     9     9    10    1
    10     9    11    1
    11     9    12    1
    12     8    13   ar
    13    13     3   ar
    14    13    14    1
    15     1    15    1
    16     2    16    1
    17     2    17    1
    18     4    18    1
    19     5    19    1
