@<TRIPOS>MOLECULE

  61   64
SMALL
USER_CHARGES
@<TRIPOS>ATOM
   1 C1           1.8707     7.2175     4.1628 C.3          1    LIG   0.0000
   2 O2           1.2543     7.2891     2.8855 O.3          1    LIG   0.0000
   3 C3           0.5100     6.2178     2.5386 C.ar         1    LIG   0.0000
   4 C4          -0.1316     6.1996     1.3045 C.ar         1    LIG   0.0000
   5 C5          -0.8951     5.0906     0.9542 C.ar         1    LIG   0.0000
   6 C6          -1.0092     4.0185     1.8336 C.ar         1    LIG   0.0000
   7 N7          -1.7811     2.9072     1.4719 N.pl3        1    LIG   0.0000
   8 S8          -1.5566     2.1959     0.0225 S.o2         1    LIG   0.0000
   9 O9          -1.5778     3.1974    -1.0120 O.2          1    LIG   0.0000
  10 O10         -2.6090     1.2414    -0.2118 O.2          1    LIG   0.0000
  11 C11         -0.0197     1.3799     0.0086 C.ar         1    LIG   0.0000
  12 C12         -0.0100    -0.0110     0.0013 C.ar         1    LIG   0.0000
  13 C13          1.2103    -0.6785    -0.0098 C.ar         1    LIG   0.0000
  14 N14          1.2274    -2.0788    -0.0171 N.am         1    LIG   0.0000
  15 C15          2.4221    -2.7492    -0.0281 C.2          1    LIG   0.0000
  16 O16          3.3890    -2.2606     0.4879 O.2          1    LIG   0.0000
  17 C17          2.5182    -4.0496    -0.6634 C.ar         1    LIG   0.0000
  18 C18          3.7645    -4.5369    -1.0454 C.ar         1    LIG   0.0000
  19 C19          3.8664    -5.7825    -1.6557 C.ar         1    LIG   0.0000
  20 C20          2.7117    -6.5255    -1.8767 C.ar         1    LIG   0.0000
  21 N21          2.8078    -7.7809    -2.4914 N.pl3        1    LIG   0.0000
  22 N22          3.5995    -8.0776    -3.4938 N.2          1    LIG   0.0000
  23 C23          3.4445    -9.3364    -3.8301 C.2          1    LIG   0.0000
  24 C24          4.1824   -10.0579    -4.9453 C.3          1    LIG   0.0000
  25 C25          2.4756    -9.9004    -2.9754 C.2          1    LIG   0.0000
  26 C26          2.0986    -8.8910    -2.1474 C.2          1    LIG   0.0000
  27 C27          1.0680    -8.9899    -1.0346 C.3          1    LIG   0.0000
  28 C28          1.4618    -6.0467    -1.4991 C.ar         1    LIG   0.0000
  29 C29          1.3692    -4.8003    -0.8881 C.ar         1    LIG   0.0000
  30 C30          2.4109     0.0241    -0.0136 C.ar         1    LIG   0.0000
  31 C31          2.3905     1.4153    -0.0060 C.ar         1    LIG   0.0000
  32 C32          1.1754     2.0934     0.0050 C.ar         1    LIG   0.0000
  33 C33          1.1900     3.6133     0.0131 C.3          1    LIG   0.0000
  34 C34         -0.3637     4.0461     3.0651 C.ar         1    LIG   0.0000
  35 C35          0.4017     5.1502     3.4240 C.ar         1    LIG   0.0000
  36 H            2.3961     8.0524     4.3266 H            1    LIG   0.0000
  37 H            1.1674     7.1225     4.8674 H            1    LIG   0.0000
  38 H            2.4825     6.4271     4.1938 H            1    LIG   0.0000
  39 H           -0.0453     6.9737     0.6774 H            1    LIG   0.0000
  40 H           -1.3619     5.0640     0.0702 H            1    LIG   0.0000
  41 H           -2.4699     2.5501     2.1028 H            1    LIG   0.0000
  42 H           -0.8685    -0.5240     0.0041 H            1    LIG   0.0000
  43 H            0.3675    -2.5893    -0.0142 H            1    LIG   0.0000
  44 H            4.5866    -3.9917    -0.8811 H            1    LIG   0.0000
  45 H            4.7588    -6.1394    -1.9320 H            1    LIG   0.0000
  46 H            3.8754   -11.0087    -4.9874 H            1    LIG   0.0000
  47 H            3.9916    -9.6071    -5.8173 H            1    LIG   0.0000
  48 H            5.1657   -10.0327    -4.7652 H            1    LIG   0.0000
  49 H            2.1381   -10.8417    -2.9778 H            1    LIG   0.0000
  50 H            0.7017    -9.9198    -1.0012 H            1    LIG   0.0000
  51 H            1.4998    -8.7701    -0.1598 H            1    LIG   0.0000
  52 H            0.3244    -8.3448    -1.2106 H            1    LIG   0.0000
  53 H            0.6398    -6.5916    -1.6648 H            1    LIG   0.0000
  54 H            0.4769    -4.4443    -0.6107 H            1    LIG   0.0000
  55 H            3.2820    -0.4669    -0.0217 H            1    LIG   0.0000
  56 H            3.2491     1.9280    -0.0085 H            1    LIG   0.0000
  57 H            2.1359     3.9377     0.0090 H            1    LIG   0.0000
  58 H            0.7167     3.9555    -0.7987 H            1    LIG   0.0000
  59 H            0.7269     3.9468     0.8343 H            1    LIG   0.0000
  60 H           -0.4500     3.2721     3.6924 H            1    LIG   0.0000
  61 H            0.8687     5.1765     4.3078 H            1    LIG   0.0000
@<TRIPOS>BOND
   1        1        2 1
   2        2        3 1
   3        3        4 ar
   4        4        5 ar
   5        5        6 ar
   6        6        7 1
   7        7        8 1
   8        8        9 2
   9        8       10 2
  10        8       11 1
  11       11       12 ar
  12       12       13 ar
  13       13       14 1
  14       14       15 am
  15       15       16 2
  16       15       17 1
  17       17       18 ar
  18       18       19 ar
  19       19       20 ar
  20       20       21 1
  21       21       22 1
  22       22       23 2
  23       23       24 1
  24       23       25 1
  25       25       26 2
  26       26       21 1
  27       26       27 1
  28       20       28 ar
  29       28       29 ar
  30       29       17 ar
  31       13       30 ar
  32       30       31 ar
  33       31       32 ar
  34       32       11 ar
  35       32       33 1
  36        6       34 ar
  37       34       35 ar
  38       35        3 ar
  39        1       36 1
  40        1       37 1
  41        1       38 1
  42        4       39 1
  43        5       40 1
  44        7       41 1
  45       12       42 1
  46       14       43 1
  47       18       44 1
  48       19       45 1
  49       24       46 1
  50       24       47 1
  51       24       48 1
  52       25       49 1
  53       27       50 1
  54       27       51 1
  55       27       52 1
  56       28       53 1
  57       29       54 1
  58       30       55 1
  59       31       56 1
  60       33       57 1
  61       33       58 1
  62       33       59 1
  63       34       60 1
  64       35       61 1

@<TRIPOS>MOLECULE

  61   64
SMALL
USER_CHARGES
@<TRIPOS>ATOM
   1 C1           1.8707     7.2175     4.1628 C.3          1    LIG   0.0000
   2 O2           1.2543     7.2891     2.8855 O.3          1    LIG   0.0000
   3 C3           0.5100     6.2178     2.5386 C.ar         1    LIG   0.0000
   4 C4          -0.1316     6.1996     1.3045 C.ar         1    LIG   0.0000
   5 C5          -0.8951     5.0906     0.9542 C.ar         1    LIG   0.0000
   6 C6          -1.0092     4.0185     1.8336 C.ar         1    LIG   0.0000
   7 N7          -1.7811     2.9072     1.4719 N.pl3        1    LIG   0.0000
   8 S8          -1.5566     2.1959     0.0225 S.o2         1    LIG   0.0000
   9 O9          -1.5778     3.1974    -1.0120 O.2          1    LIG   0.0000
  10 O10         -2.6090     1.2414    -0.2118 O.2          1    LIG   0.0000
  11 C11         -0.0197     1.3799     0.0086 C.ar         1    LIG   0.0000
  12 C12         -0.0100    -0.0110     0.0013 C.ar         1    LIG   0.0000
  13 C13          1.2103    -0.6785    -0.0098 C.ar         1    LIG   0.0000
  14 N14          1.2274    -2.0788    -0.0171 N.am         1    LIG   0.0000
  15 C15          2.4221    -2.7492    -0.0281 C.2          1    LIG   0.0000
  16 O16          3.3825    -2.2553    -0.5513 O.2          1    LIG   0.0000
  17 C17          2.5261    -4.0560     0.5927 C.ar         1    LIG   0.0000
  18 C18          3.5701    -4.9045     0.2363 C.ar         1    LIG   0.0000
  19 C19          3.6777    -6.1596     0.8258 C.ar         1    LIG   0.0000
  20 C20          2.7321    -6.5491     1.7684 C.ar         1    LIG   0.0000
  21 N21          2.8348    -7.8123     2.3655 N.pl3        1    LIG   0.0000
  22 N22          3.1758    -8.9186     1.7495 N.2          1    LIG   0.0000
  23 C23          3.1754    -9.9214     2.5958 C.2          1    LIG   0.0000
  24 C24          3.5152   -11.3652     2.2664 C.3          1    LIG   0.0000
  25 C25          2.8061    -9.4237     3.8620 C.2          1    LIG   0.0000
  26 C26          2.5998    -8.0934     3.6767 C.2          1    LIG   0.0000
  27 C27          2.1821    -7.0993     4.7481 C.3          1    LIG   0.0000
  28 C28          1.6851    -5.7084     2.1305 C.ar         1    LIG   0.0000
  29 C29          1.5857    -4.4542     1.5368 C.ar         1    LIG   0.0000
  30 C30          2.4109     0.0241    -0.0136 C.ar         1    LIG   0.0000
  31 C31          2.3905     1.4153    -0.0060 C.ar         1    LIG   0.0000
  32 C32          1.1754     2.0934     0.0050 C.ar         1    LIG   0.0000
  33 C33          1.1900     3.6133     0.0131 C.3          1    LIG   0.0000
  34 C34         -0.3637     4.0461     3.0651 C.ar         1    LIG   0.0000
  35 C35          0.4017     5.1502     3.4240 C.ar         1    LIG   0.0000
  36 H            2.3961     8.0524     4.3266 H            1    LIG   0.0000
  37 H            1.1674     7.1225     4.8674 H            1    LIG   0.0000
  38 H            2.4825     6.4271     4.1938 H            1    LIG   0.0000
  39 H           -0.0453     6.9737     0.6774 H            1    LIG   0.0000
  40 H           -1.3619     5.0640     0.0702 H            1    LIG   0.0000
  41 H           -2.4699     2.5501     2.1028 H            1    LIG   0.0000
  42 H           -0.8685    -0.5240     0.0041 H            1    LIG   0.0000
  43 H            0.3675    -2.5893    -0.0142 H            1    LIG   0.0000
  44 H            4.2426    -4.6119    -0.4435 H            1    LIG   0.0000
  45 H            4.4257    -6.7742     0.5752 H            1    LIG   0.0000
  46 H            3.4368   -11.9230     3.0927 H            1    LIG   0.0000
  47 H            2.8814   -11.7068     1.5723 H            1    LIG   0.0000
  48 H            4.4509   -11.4162     1.9173 H            1    LIG   0.0000
  49 H            2.7153    -9.9392     4.7141 H            1    LIG   0.0000
  50 H            2.0786    -7.5747     5.6218 H            1    LIG   0.0000
  51 H            2.8814    -6.3899     4.8354 H            1    LIG   0.0000
  52 H            1.3114    -6.6794     4.4919 H            1    LIG   0.0000
  53 H            1.0120    -6.0018     2.8094 H            1    LIG   0.0000
  54 H            0.8384    -3.8393     1.7886 H            1    LIG   0.0000
  55 H            3.2820    -0.4669    -0.0217 H            1    LIG   0.0000
  56 H            3.2491     1.9280    -0.0085 H            1    LIG   0.0000
  57 H            2.1359     3.9377     0.0090 H            1    LIG   0.0000
  58 H            0.7167     3.9555    -0.7987 H            1    LIG   0.0000
  59 H            0.7269     3.9468     0.8343 H            1    LIG   0.0000
  60 H           -0.4500     3.2721     3.6924 H            1    LIG   0.0000
  61 H            0.8687     5.1765     4.3078 H            1    LIG   0.0000
@<TRIPOS>BOND
   1        1        2 1
   2        2        3 1
   3        3        4 ar
   4        4        5 ar
   5        5        6 ar
   6        6        7 1
   7        7        8 1
   8        8        9 2
   9        8       10 2
  10        8       11 1
  11       11       12 ar
  12       12       13 ar
  13       13       14 1
  14       14       15 am
  15       15       16 2
  16       15       17 1
  17       17       18 ar
  18       18       19 ar
  19       19       20 ar
  20       20       21 1
  21       21       22 1
  22       22       23 2
  23       23       24 1
  24       23       25 1
  25       25       26 2
  26       26       21 1
  27       26       27 1
  28       20       28 ar
  29       28       29 ar
  30       29       17 ar
  31       13       30 ar
  32       30       31 ar
  33       31       32 ar
  34       32       11 ar
  35       32       33 1
  36        6       34 ar
  37       34       35 ar
  38       35        3 ar
  39        1       36 1
  40        1       37 1
  41        1       38 1
  42        4       39 1
  43        5       40 1
  44        7       41 1
  45       12       42 1
  46       14       43 1
  47       18       44 1
  48       19       45 1
  49       24       46 1
  50       24       47 1
  51       24       48 1
  52       25       49 1
  53       27       50 1
  54       27       51 1
  55       27       52 1
  56       28       53 1
  57       29       54 1
  58       30       55 1
  59       31       56 1
  60       33       57 1
  61       33       58 1
  62       33       59 1
  63       34       60 1
  64       35       61 1

@<TRIPOS>MOLECULE

  61   64
SMALL
USER_CHARGES
@<TRIPOS>ATOM
   1 C1           1.8707     7.2175     4.1628 C.3          1    LIG   0.0000
   2 O2           1.2543     7.2891     2.8855 O.3          1    LIG   0.0000
   3 C3           0.5100     6.2178     2.5386 C.ar         1    LIG   0.0000
   4 C4          -0.1316     6.1996     1.3045 C.ar         1    LIG   0.0000
   5 C5          -0.8951     5.0906     0.9542 C.ar         1    LIG   0.0000
   6 C6          -1.0092     4.0185     1.8336 C.ar         1    LIG   0.0000
   7 N7          -1.7811     2.9072     1.4719 N.pl3        1    LIG   0.0000
   8 S8          -1.5566     2.1959     0.0225 S.o2         1    LIG   0.0000
   9 O9          -1.5778     3.1974    -1.0120 O.2          1    LIG   0.0000
  10 O10         -2.6090     1.2414    -0.2118 O.2          1    LIG   0.0000
  11 C11         -0.0197     1.3799     0.0086 C.ar         1    LIG   0.0000
  12 C12         -0.0100    -0.0110     0.0013 C.ar         1    LIG   0.0000
  13 C13          1.2103    -0.6785    -0.0098 C.ar         1    LIG   0.0000
  14 N14          1.2274    -2.0788    -0.0171 N.am         1    LIG   0.0000
  15 C15          2.1494    -2.7565     0.7363 C.2          1    LIG   0.0000
  16 O16          2.1640    -3.9564     0.7301 O.2          1    LIG   0.0000
  17 C17          3.1079    -2.0236     1.5415 C.ar         1    LIG   0.0000
  18 C18          4.4248    -2.4675     1.6151 C.ar         1    LIG   0.0000
  19 C19          5.3507    -1.7716     2.3850 C.ar         1    LIG   0.0000
  20 C20          4.9414    -0.6353     3.0746 C.ar         1    LIG   0.0000
  21 N21          5.8693     0.0699     3.8522 N.pl3        1    LIG   0.0000
  22 N22          6.7945    -0.4710     4.6078 N.2          1    LIG   0.0000
  23 C23          7.4944     0.4673     5.2006 C.2          1    LIG   0.0000
  24 C24          8.6545     0.2442     6.1562 C.3          1    LIG   0.0000
  25 C25          6.9820     1.7164     4.7945 C.2          1    LIG   0.0000
  26 C26          5.9607     1.4250     3.9468 C.2          1    LIG   0.0000
  27 C27          5.0803     2.4372     3.2320 C.3          1    LIG   0.0000
  28 C28          3.6275    -0.1843     3.0076 C.ar         1    LIG   0.0000
  29 C29          2.7082    -0.8858     2.2342 C.ar         1    LIG   0.0000
  30 C30          2.4109     0.0241    -0.0136 C.ar         1    LIG   0.0000
  31 C31          2.3905     1.4153    -0.0060 C.ar         1    LIG   0.0000
  32 C32          1.1754     2.0934     0.0050 C.ar         1    LIG   0.0000
  33 C33          1.1900     3.6133     0.0131 C.3          1    LIG   0.0000
  34 C34         -0.3637     4.0461     3.0651 C.ar         1    LIG   0.0000
  35 C35          0.4017     5.1502     3.4240 C.ar         1    LIG   0.0000
  36 H            2.3961     8.0524     4.3266 H            1    LIG   0.0000
  37 H            1.1674     7.1225     4.8674 H            1    LIG   0.0000
  38 H            2.4825     6.4271     4.1938 H            1    LIG   0.0000
  39 H           -0.0453     6.9737     0.6774 H            1    LIG   0.0000
  40 H           -1.3619     5.0640     0.0702 H            1    LIG   0.0000
  41 H           -2.4699     2.5501     2.1028 H            1    LIG   0.0000
  42 H           -0.8685    -0.5240     0.0041 H            1    LIG   0.0000
  43 H            0.5666    -2.5840    -0.5721 H            1    LIG   0.0000
  44 H            4.7052    -3.2866     1.1147 H            1    LIG   0.0000
  45 H            6.2988    -2.0843     2.4419 H            1    LIG   0.0000
  46 H            9.0087     1.1278     6.4624 H            1    LIG   0.0000
  47 H            8.3389    -0.2805     6.9468 H            1    LIG   0.0000
  48 H            9.3792    -0.2615     5.6882 H            1    LIG   0.0000
  49 H            7.3016     2.6227     5.0711 H            1    LIG   0.0000
  50 H            5.3660     3.3624     3.4816 H            1    LIG   0.0000
  51 H            5.1686     2.3163     2.2433 H            1    LIG   0.0000
  52 H            4.1272     2.2987     3.5011 H            1    LIG   0.0000
  53 H            3.3471     0.6341     3.5092 H            1    LIG   0.0000
  54 H            1.7604    -0.5720     2.1764 H            1    LIG   0.0000
  55 H            3.2820    -0.4669    -0.0217 H            1    LIG   0.0000
  56 H            3.2491     1.9280    -0.0085 H            1    LIG   0.0000
  57 H            2.1359     3.9377     0.0090 H            1    LIG   0.0000
  58 H            0.7167     3.9555    -0.7987 H            1    LIG   0.0000
  59 H            0.7269     3.9468     0.8343 H            1    LIG   0.0000
  60 H           -0.4500     3.2721     3.6924 H            1    LIG   0.0000
  61 H            0.8687     5.1765     4.3078 H            1    LIG   0.0000
@<TRIPOS>BOND
   1        1        2 1
   2        2        3 1
   3        3        4 ar
   4        4        5 ar
   5        5        6 ar
   6        6        7 1
   7        7        8 1
   8        8        9 2
   9        8       10 2
  10        8       11 1
  11       11       12 ar
  12       12       13 ar
  13       13       14 1
  14       14       15 am
  15       15       16 2
  16       15       17 1
  17       17       18 ar
  18       18       19 ar
  19       19       20 ar
  20       20       21 1
  21       21       22 1
  22       22       23 2
  23       23       24 1
  24       23       25 1
  25       25       26 2
  26       26       21 1
  27       26       27 1
  28       20       28 ar
  29       28       29 ar
  30       29       17 ar
  31       13       30 ar
  32       30       31 ar
  33       31       32 ar
  34       32       11 ar
  35       32       33 1
  36        6       34 ar
  37       34       35 ar
  38       35        3 ar
  39        1       36 1
  40        1       37 1
  41        1       38 1
  42        4       39 1
  43        5       40 1
  44        7       41 1
  45       12       42 1
  46       14       43 1
  47       18       44 1
  48       19       45 1
  49       24       46 1
  50       24       47 1
  51       24       48 1
  52       25       49 1
  53       27       50 1
  54       27       51 1
  55       27       52 1
  56       28       53 1
  57       29       54 1
  58       30       55 1
  59       31       56 1
  60       33       57 1
  61       33       58 1
  62       33       59 1
  63       34       60 1
  64       35       61 1

@<TRIPOS>MOLECULE

  61   64
SMALL
USER_CHARGES
@<TRIPOS>ATOM
   1 C1           1.8707     7.2175     4.1628 C.3          1    LIG   0.0000
   2 O2           1.2543     7.2891     2.8855 O.3          1    LIG   0.0000
   3 C3           0.5100     6.2178     2.5386 C.ar         1    LIG   0.0000
   4 C4          -0.1316     6.1996     1.3045 C.ar         1    LIG   0.0000
   5 C5          -0.8951     5.0906     0.9542 C.ar         1    LIG   0.0000
   6 C6          -1.0092     4.0185     1.8336 C.ar         1    LIG   0.0000
   7 N7          -1.7811     2.9072     1.4719 N.pl3        1    LIG   0.0000
   8 S8          -1.5566     2.1959     0.0225 S.o2         1    LIG   0.0000
   9 O9          -1.5778     3.1974    -1.0120 O.2          1    LIG   0.0000
  10 O10         -2.6090     1.2414    -0.2118 O.2          1    LIG   0.0000
  11 C11         -0.0197     1.3799     0.0086 C.ar         1    LIG   0.0000
  12 C12         -0.0100    -0.0110     0.0013 C.ar         1    LIG   0.0000
  13 C13          1.2103    -0.6785    -0.0098 C.ar         1    LIG   0.0000
  14 N14          1.2274    -2.0788    -0.0171 N.am         1    LIG   0.0000
  15 C15          2.1397    -2.7487    -0.7889 C.2          1    LIG   0.0000
  16 O16          2.1544    -3.9486    -0.7952 O.2          1    LIG   0.0000
  17 C17          3.0879    -2.0076    -1.5987 C.ar         1    LIG   0.0000
  18 C18          4.4038    -2.4506    -1.6936 C.ar         1    LIG   0.0000
  19 C19          5.3201    -1.7463    -2.4672 C.ar         1    LIG   0.0000
  20 C20          4.9030    -0.6012    -3.1374 C.ar         1    LIG   0.0000
  21 N21          5.8215     0.1129    -3.9180 N.pl3        1    LIG   0.0000
  22 N22          7.0726     0.3428    -3.5995 N.2          1    LIG   0.0000
  23 C23          7.6558     1.0389    -4.5466 C.2          1    LIG   0.0000
  24 C24          9.1021     1.5042    -4.5483 C.3          1    LIG   0.0000
  25 C25          6.7059     1.2773    -5.5608 C.2          1    LIG   0.0000
  26 C26          5.5645     0.6796    -5.1289 C.2          1    LIG   0.0000
  27 C27          4.2386     0.6506    -5.8715 C.3          1    LIG   0.0000
  28 C28          3.5904    -0.1503    -3.0481 C.ar         1    LIG   0.0000
  29 C29          2.6801    -0.8617    -2.2731 C.ar         1    LIG   0.0000
  30 C30          2.4109     0.0241    -0.0136 C.ar         1    LIG   0.0000
  31 C31          2.3905     1.4153    -0.0060 C.ar         1    LIG   0.0000
  32 C32          1.1754     2.0934     0.0050 C.ar         1    LIG   0.0000
  33 C33          1.1900     3.6133     0.0131 C.3          1    LIG   0.0000
  34 C34         -0.3637     4.0461     3.0651 C.ar         1    LIG   0.0000
  35 C35          0.4017     5.1502     3.4240 C.ar         1    LIG   0.0000
  36 H            2.3961     8.0524     4.3266 H            1    LIG   0.0000
  37 H            1.1674     7.1225     4.8674 H            1    LIG   0.0000
  38 H            2.4825     6.4271     4.1938 H            1    LIG   0.0000
  39 H           -0.0453     6.9737     0.6774 H            1    LIG   0.0000
  40 H           -1.3619     5.0640     0.0702 H            1    LIG   0.0000
  41 H           -2.4699     2.5501     2.1028 H            1    LIG   0.0000
  42 H           -0.8685    -0.5240     0.0041 H            1    LIG   0.0000
  43 H            0.5737    -2.5897     0.5412 H            1    LIG   0.0000
  44 H            4.6903    -3.2752    -1.2057 H            1    LIG   0.0000
  45 H            6.2670    -2.0593    -2.5407 H            1    LIG   0.0000
  46 H            9.2871     2.0148    -5.3880 H            1    LIG   0.0000
  47 H            9.2633     2.0943    -3.7571 H            1    LIG   0.0000
  48 H            9.7079     0.7100    -4.5007 H            1    LIG   0.0000
  49 H            6.8428     1.7789    -6.4150 H            1    LIG   0.0000
  50 H            4.3301     1.1440    -6.7365 H            1    LIG   0.0000
  51 H            3.9797    -0.2978    -6.0546 H            1    LIG   0.0000
  52 H            3.5336     1.0865    -5.3121 H            1    LIG   0.0000
  53 H            3.3045     0.6750    -3.5350 H            1    LIG   0.0000
  54 H            1.7329    -0.5492    -2.2009 H            1    LIG   0.0000
  55 H            3.2820    -0.4669    -0.0217 H            1    LIG   0.0000
  56 H            3.2491     1.9280    -0.0085 H            1    LIG   0.0000
  57 H            2.1359     3.9377     0.0090 H            1    LIG   0.0000
  58 H            0.7167     3.9555    -0.7987 H            1    LIG   0.0000
  59 H            0.7269     3.9468     0.8343 H            1    LIG   0.0000
  60 H           -0.4500     3.2721     3.6924 H            1    LIG   0.0000
  61 H            0.8687     5.1765     4.3078 H            1    LIG   0.0000
@<TRIPOS>BOND
   1        1        2 1
   2        2        3 1
   3        3        4 ar
   4        4        5 ar
   5        5        6 ar
   6        6        7 1
   7        7        8 1
   8        8        9 2
   9        8       10 2
  10        8       11 1
  11       11       12 ar
  12       12       13 ar
  13       13       14 1
  14       14       15 am
  15       15       16 2
  16       15       17 1
  17       17       18 ar
  18       18       19 ar
  19       19       20 ar
  20       20       21 1
  21       21       22 1
  22       22       23 2
  23       23       24 1
  24       23       25 1
  25       25       26 2
  26       26       21 1
  27       26       27 1
  28       20       28 ar
  29       28       29 ar
  30       29       17 ar
  31       13       30 ar
  32       30       31 ar
  33       31       32 ar
  34       32       11 ar
  35       32       33 1
  36        6       34 ar
  37       34       35 ar
  38       35        3 ar
  39        1       36 1
  40        1       37 1
  41        1       38 1
  42        4       39 1
  43        5       40 1
  44        7       41 1
  45       12       42 1
  46       14       43 1
  47       18       44 1
  48       19       45 1
  49       24       46 1
  50       24       47 1
  51       24       48 1
  52       25       49 1
  53       27       50 1
  54       27       51 1
  55       27       52 1
  56       28       53 1
  57       29       54 1
  58       30       55 1
  59       31       56 1
  60       33       57 1
  61       33       58 1
  62       33       59 1
  63       34       60 1
  64       35       61 1

@<TRIPOS>MOLECULE

  61   64
SMALL
USER_CHARGES
@<TRIPOS>ATOM
   1 C1           1.5008     7.4377     4.2761 C.3          1    LIG   0.0000
   2 O2           1.2543     7.2891     2.8855 O.3          1    LIG   0.0000
   3 C3           0.5100     6.2178     2.5386 C.ar         1    LIG   0.0000
   4 C4          -0.1316     6.1996     1.3045 C.ar         1    LIG   0.0000
   5 C5          -0.8951     5.0906     0.9542 C.ar         1    LIG   0.0000
   6 C6          -1.0092     4.0185     1.8336 C.ar         1    LIG   0.0000
   7 N7          -1.7811     2.9072     1.4719 N.pl3        1    LIG   0.0000
   8 S8          -1.5566     2.1959     0.0225 S.o2         1    LIG   0.0000
   9 O9          -1.5778     3.1974    -1.0120 O.2          1    LIG   0.0000
  10 O10         -2.6090     1.2414    -0.2118 O.2          1    LIG   0.0000
  11 C11         -0.0197     1.3799     0.0086 C.ar         1    LIG   0.0000
  12 C12         -0.0100    -0.0110     0.0013 C.ar         1    LIG   0.0000
  13 C13          1.2103    -0.6785    -0.0098 C.ar         1    LIG   0.0000
  14 N14          1.2274    -2.0788    -0.0171 N.am         1    LIG   0.0000
  15 C15          1.8224    -2.7512    -1.0518 C.2          1    LIG   0.0000
  16 O16          2.6230    -2.1920    -1.7492 O.2          1    LIG   0.0000
  17 C17          1.4846    -4.1391    -1.3044 C.ar         1    LIG   0.0000
  18 C18          1.3419    -4.5835    -2.6154 C.ar         1    LIG   0.0000
  19 C19          1.0178    -5.9124    -2.8673 C.ar         1    LIG   0.0000
  20 C20          0.8391    -6.7813    -1.7962 C.ar         1    LIG   0.0000
  21 N21          0.5121    -8.1210    -2.0434 N.pl3        1    LIG   0.0000
  22 N22         -0.5999    -8.5422    -2.5963 N.2          1    LIG   0.0000
  23 C23         -0.5897    -9.8515    -2.6827 C.2          1    LIG   0.0000
  24 C24         -1.6971   -10.7146    -3.2634 C.3          1    LIG   0.0000
  25 C25          0.6278   -10.3150    -2.1438 C.2          1    LIG   0.0000
  26 C26          1.2936    -9.1970    -1.7521 C.2          1    LIG   0.0000
  27 C27          2.6686    -9.1603    -1.1051 C.3          1    LIG   0.0000
  28 C28          0.9790    -6.3463    -0.4827 C.ar         1    LIG   0.0000
  29 C29          1.3046    -5.0157    -0.2398 C.ar         1    LIG   0.0000
  30 C30          2.4109     0.0241    -0.0136 C.ar         1    LIG   0.0000
  31 C31          2.3905     1.4153    -0.0060 C.ar         1    LIG   0.0000
  32 C32          1.1754     2.0934     0.0050 C.ar         1    LIG   0.0000
  33 C33          1.1900     3.6133     0.0131 C.3          1    LIG   0.0000
  34 C34         -0.3637     4.0461     3.0651 C.ar         1    LIG   0.0000
  35 C35          0.4017     5.1502     3.4240 C.ar         1    LIG   0.0000
  36 H            2.0566     8.2546     4.4306 H            1    LIG   0.0000
  37 H            0.6310     7.5297     4.7608 H            1    LIG   0.0000
  38 H            1.9884     6.6336     4.6160 H            1    LIG   0.0000
  39 H           -0.0453     6.9737     0.6774 H            1    LIG   0.0000
  40 H           -1.3619     5.0640     0.0702 H            1    LIG   0.0000
  41 H           -2.4699     2.5501     2.1028 H            1    LIG   0.0000
  42 H           -0.8685    -0.5240     0.0041 H            1    LIG   0.0000
  43 H            0.8053    -2.5878     0.7330 H            1    LIG   0.0000
  44 H            1.4724    -3.9477    -3.3761 H            1    LIG   0.0000
  45 H            0.9145    -6.2389    -3.8068 H            1    LIG   0.0000
  46 H           -1.4337   -11.6776    -3.2066 H            1    LIG   0.0000
  47 H           -2.5400   -10.5685    -2.7455 H            1    LIG   0.0000
  48 H           -1.8466   -10.4658    -4.2204 H            1    LIG   0.0000
  49 H            0.9355   -11.2633    -2.0663 H            1    LIG   0.0000
  50 H            3.0160   -10.0929    -1.0073 H            1    LIG   0.0000
  51 H            3.2930    -8.6304    -1.6790 H            1    LIG   0.0000
  52 H            2.6013    -8.7333    -0.2033 H            1    LIG   0.0000
  53 H            0.8471    -6.9820     0.2779 H            1    LIG   0.0000
  54 H            1.4092    -4.6898     0.6998 H            1    LIG   0.0000
  55 H            3.2820    -0.4669    -0.0217 H            1    LIG   0.0000
  56 H            3.2491     1.9280    -0.0085 H            1    LIG   0.0000
  57 H            2.1359     3.9377     0.0090 H            1    LIG   0.0000
  58 H            0.7167     3.9555    -0.7987 H            1    LIG   0.0000
  59 H            0.7269     3.9468     0.8343 H            1    LIG   0.0000
  60 H           -0.4500     3.2721     3.6924 H            1    LIG   0.0000
  61 H            0.8687     5.1765     4.3078 H            1    LIG   0.0000
@<TRIPOS>BOND
   1        1        2 1
   2        2        3 1
   3        3        4 ar
   4        4        5 ar
   5        5        6 ar
   6        6        7 1
   7        7        8 1
   8        8        9 2
   9        8       10 2
  10        8       11 1
  11       11       12 ar
  12       12       13 ar
  13       13       14 1
  14       14       15 am
  15       15       16 2
  16       15       17 1
  17       17       18 ar
  18       18       19 ar
  19       19       20 ar
  20       20       21 1
  21       21       22 1
  22       22       23 2
  23       23       24 1
  24       23       25 1
  25       25       26 2
  26       26       21 1
  27       26       27 1
  28       20       28 ar
  29       28       29 ar
  30       29       17 ar
  31       13       30 ar
  32       30       31 ar
  33       31       32 ar
  34       32       11 ar
  35       32       33 1
  36        6       34 ar
  37       34       35 ar
  38       35        3 ar
  39        1       36 1
  40        1       37 1
  41        1       38 1
  42        4       39 1
  43        5       40 1
  44        7       41 1
  45       12       42 1
  46       14       43 1
  47       18       44 1
  48       19       45 1
  49       24       46 1
  50       24       47 1
  51       24       48 1
  52       25       49 1
  53       27       50 1
  54       27       51 1
  55       27       52 1
  56       28       53 1
  57       29       54 1
  58       30       55 1
  59       31       56 1
  60       33       57 1
  61       33       58 1
  62       33       59 1
  63       34       60 1
  64       35       61 1

@<TRIPOS>MOLECULE

  61   64
SMALL
USER_CHARGES
@<TRIPOS>ATOM
   1 C1           1.3121     8.3311     1.9226 C.3          1    LIG   0.0000
   2 O2           1.2543     7.2891     2.8855 O.3          1    LIG   0.0000
   3 C3           0.5100     6.2178     2.5386 C.ar         1    LIG   0.0000
   4 C4          -0.1316     6.1996     1.3045 C.ar         1    LIG   0.0000
   5 C5          -0.8951     5.0906     0.9542 C.ar         1    LIG   0.0000
   6 C6          -1.0092     4.0185     1.8336 C.ar         1    LIG   0.0000
   7 N7          -1.7811     2.9072     1.4719 N.pl3        1    LIG   0.0000
   8 S8          -1.5566     2.1959     0.0225 S.o2         1    LIG   0.0000
   9 O9          -1.5778     3.1974    -1.0120 O.2          1    LIG   0.0000
  10 O10         -2.6090     1.2414    -0.2118 O.2          1    LIG   0.0000
  11 C11         -0.0197     1.3799     0.0086 C.ar         1    LIG   0.0000
  12 C12         -0.0100    -0.0110     0.0013 C.ar         1    LIG   0.0000
  13 C13          1.2103    -0.6785    -0.0098 C.ar         1    LIG   0.0000
  14 N14          1.2274    -2.0788    -0.0171 N.am         1    LIG   0.0000
  15 C15          2.1494    -2.7565     0.7363 C.2          1    LIG   0.0000
  16 O16          2.1640    -3.9564     0.7301 O.2          1    LIG   0.0000
  17 C17          3.1079    -2.0236     1.5415 C.ar         1    LIG   0.0000
  18 C18          4.4248    -2.4675     1.6151 C.ar         1    LIG   0.0000
  19 C19          5.3507    -1.7716     2.3850 C.ar         1    LIG   0.0000
  20 C20          4.9414    -0.6353     3.0746 C.ar         1    LIG   0.0000
  21 N21          5.8693     0.0699     3.8522 N.pl3        1    LIG   0.0000
  22 N22          6.0753     1.3640     3.8019 N.2          1    LIG   0.0000
  23 C23          7.0101     1.7028     4.6581 C.2          1    LIG   0.0000
  24 C24          7.5322     3.1095     4.8968 C.3          1    LIG   0.0000
  25 C25          7.4429     0.5339     5.3169 C.2          1    LIG   0.0000
  26 C26          6.7022    -0.4724     4.7826 C.2          1    LIG   0.0000
  27 C27          6.7910    -1.9416     5.1619 C.3          1    LIG   0.0000
  28 C28          3.6275    -0.1843     3.0076 C.ar         1    LIG   0.0000
  29 C29          2.7082    -0.8858     2.2342 C.ar         1    LIG   0.0000
  30 C30          2.4109     0.0241    -0.0136 C.ar         1    LIG   0.0000
  31 C31          2.3905     1.4153    -0.0060 C.ar         1    LIG   0.0000
  32 C32          1.1754     2.0934     0.0050 C.ar         1    LIG   0.0000
  33 C33          1.1900     3.6133     0.0131 C.3          1    LIG   0.0000
  34 C34         -0.3637     4.0461     3.0651 C.ar         1    LIG   0.0000
  35 C35          0.4017     5.1502     3.4240 C.ar         1    LIG   0.0000
  36 H            1.8833     9.0747     2.2700 H            1    LIG   0.0000
  37 H            1.7044     7.9784     1.0730 H            1    LIG   0.0000
  38 H            0.3893     8.6739     1.7466 H            1    LIG   0.0000
  39 H           -0.0453     6.9737     0.6774 H            1    LIG   0.0000
  40 H           -1.3619     5.0640     0.0702 H            1    LIG   0.0000
  41 H           -2.4699     2.5501     2.1028 H            1    LIG   0.0000
  42 H           -0.8685    -0.5240     0.0041 H            1    LIG   0.0000
  43 H            0.5666    -2.5840    -0.5721 H            1    LIG   0.0000
  44 H            4.7052    -3.2866     1.1147 H            1    LIG   0.0000
  45 H            6.2988    -2.0843     2.4419 H            1    LIG   0.0000
  46 H            8.2414     3.0868     5.6014 H            1    LIG   0.0000
  47 H            7.9175     3.4706     4.0476 H            1    LIG   0.0000
  48 H            6.7813     3.6970     5.1985 H            1    LIG   0.0000
  49 H            8.1447     0.4609     6.0256 H            1    LIG   0.0000
  50 H            7.4853    -2.0614     5.8716 H            1    LIG   0.0000
  51 H            5.9048    -2.2510     5.5069 H            1    LIG   0.0000
  52 H            7.0413    -2.4792     4.3567 H            1    LIG   0.0000
  53 H            3.3471     0.6341     3.5092 H            1    LIG   0.0000
  54 H            1.7604    -0.5720     2.1764 H            1    LIG   0.0000
  55 H            3.2820    -0.4669    -0.0217 H            1    LIG   0.0000
  56 H            3.2491     1.9280    -0.0085 H            1    LIG   0.0000
  57 H            2.1359     3.9377     0.0090 H            1    LIG   0.0000
  58 H            0.7167     3.9555    -0.7987 H            1    LIG   0.0000
  59 H            0.7269     3.9468     0.8343 H            1    LIG   0.0000
  60 H           -0.4500     3.2721     3.6924 H            1    LIG   0.0000
  61 H            0.8687     5.1765     4.3078 H            1    LIG   0.0000
@<TRIPOS>BOND
   1        1        2 1
   2        2        3 1
   3        3        4 ar
   4        4        5 ar
   5        5        6 ar
   6        6        7 1
   7        7        8 1
   8        8        9 2
   9        8       10 2
  10        8       11 1
  11       11       12 ar
  12       12       13 ar
  13       13       14 1
  14       14       15 am
  15       15       16 2
  16       15       17 1
  17       17       18 ar
  18       18       19 ar
  19       19       20 ar
  20       20       21 1
  21       21       22 1
  22       22       23 2
  23       23       24 1
  24       23       25 1
  25       25       26 2
  26       26       21 1
  27       26       27 1
  28       20       28 ar
  29       28       29 ar
  30       29       17 ar
  31       13       30 ar
  32       30       31 ar
  33       31       32 ar
  34       32       11 ar
  35       32       33 1
  36        6       34 ar
  37       34       35 ar
  38       35        3 ar
  39        1       36 1
  40        1       37 1
  41        1       38 1
  42        4       39 1
  43        5       40 1
  44        7       41 1
  45       12       42 1
  46       14       43 1
  47       18       44 1
  48       19       45 1
  49       24       46 1
  50       24       47 1
  51       24       48 1
  52       25       49 1
  53       27       50 1
  54       27       51 1
  55       27       52 1
  56       28       53 1
  57       29       54 1
  58       30       55 1
  59       31       56 1
  60       33       57 1
  61       33       58 1
  62       33       59 1
  63       34       60 1
  64       35       61 1

@<TRIPOS>MOLECULE

  61   64
SMALL
USER_CHARGES
@<TRIPOS>ATOM
   1 C1           1.3121     8.3311     1.9226 C.3          1    LIG   0.0000
   2 O2           1.2543     7.2891     2.8855 O.3          1    LIG   0.0000
   3 C3           0.5100     6.2178     2.5386 C.ar         1    LIG   0.0000
   4 C4          -0.1316     6.1996     1.3045 C.ar         1    LIG   0.0000
   5 C5          -0.8951     5.0906     0.9542 C.ar         1    LIG   0.0000
   6 C6          -1.0092     4.0185     1.8336 C.ar         1    LIG   0.0000
   7 N7          -1.7811     2.9072     1.4719 N.pl3        1    LIG   0.0000
   8 S8          -1.5566     2.1959     0.0225 S.o2         1    LIG   0.0000
   9 O9          -1.5778     3.1974    -1.0120 O.2          1    LIG   0.0000
  10 O10         -2.6090     1.2414    -0.2118 O.2          1    LIG   0.0000
  11 C11         -0.0197     1.3799     0.0086 C.ar         1    LIG   0.0000
  12 C12         -0.0100    -0.0110     0.0013 C.ar         1    LIG   0.0000
  13 C13          1.2103    -0.6785    -0.0098 C.ar         1    LIG   0.0000
  14 N14          1.2274    -2.0788    -0.0171 N.am         1    LIG   0.0000
  15 C15          1.8354    -2.7617     1.0031 C.2          1    LIG   0.0000
  16 O16          2.3534    -2.1600     1.9029 O.2          1    LIG   0.0000
  17 C17          1.8531    -4.2121     0.9956 C.ar         1    LIG   0.0000
  18 C18          1.6589    -4.9075     2.1854 C.ar         1    LIG   0.0000
  19 C19          1.6747    -6.2982     2.1880 C.ar         1    LIG   0.0000
  20 C20          1.8872    -6.9759     0.9922 C.ar         1    LIG   0.0000
  21 N21          1.9046    -8.3768     0.9884 N.pl3        1    LIG   0.0000
  22 N22          2.4533    -9.1325     1.9090 N.2          1    LIG   0.0000
  23 C23          2.2928   -10.3986     1.6041 C.2          1    LIG   0.0000
  24 C24          2.7872   -11.5811     2.4201 C.3          1    LIG   0.0000
  25 C25          1.5813   -10.4680     0.3890 C.2          1    LIG   0.0000
  26 C26          1.3555    -9.1762     0.0329 C.2          1    LIG   0.0000
  27 C27          0.6180    -8.7117    -1.2124 C.3          1    LIG   0.0000
  28 C28          2.0828    -6.2898    -0.2015 C.ar         1    LIG   0.0000
  29 C29          2.0642    -4.8987    -0.1953 C.ar         1    LIG   0.0000
  30 C30          2.4109     0.0241    -0.0136 C.ar         1    LIG   0.0000
  31 C31          2.3905     1.4153    -0.0060 C.ar         1    LIG   0.0000
  32 C32          1.1754     2.0934     0.0050 C.ar         1    LIG   0.0000
  33 C33          1.1900     3.6133     0.0131 C.3          1    LIG   0.0000
  34 C34         -0.3637     4.0461     3.0651 C.ar         1    LIG   0.0000
  35 C35          0.4017     5.1502     3.4240 C.ar         1    LIG   0.0000
  36 H            1.8833     9.0747     2.2700 H            1    LIG   0.0000
  37 H            1.7044     7.9784     1.0730 H            1    LIG   0.0000
  38 H            0.3893     8.6739     1.7466 H            1    LIG   0.0000
  39 H           -0.0453     6.9737     0.6774 H            1    LIG   0.0000
  40 H           -1.3619     5.0640     0.0702 H            1    LIG   0.0000
  41 H           -2.4699     2.5501     2.1028 H            1    LIG   0.0000
  42 H           -0.8685    -0.5240     0.0041 H            1    LIG   0.0000
  43 H            0.7958    -2.5802    -0.7669 H            1    LIG   0.0000
  44 H            1.5081    -4.4074     3.0381 H            1    LIG   0.0000
  45 H            1.5351    -6.8044     3.0390 H            1    LIG   0.0000
  46 H            2.5312   -12.4324     1.9622 H            1    LIG   0.0000
  47 H            3.7824   -11.5345     2.5053 H            1    LIG   0.0000
  48 H            2.3732   -11.5545     3.3300 H            1    LIG   0.0000
  49 H            1.3026   -11.2916    -0.1051 H            1    LIG   0.0000
  50 H            0.3201    -9.5074    -1.7397 H            1    LIG   0.0000
  51 H           -0.1798    -8.1712    -0.9452 H            1    LIG   0.0000
  52 H            1.2285    -8.1508    -1.7716 H            1    LIG   0.0000
  53 H            2.2350    -6.7901    -1.0539 H            1    LIG   0.0000
  54 H            2.2026    -4.3927    -1.0467 H            1    LIG   0.0000
  55 H            3.2820    -0.4669    -0.0217 H            1    LIG   0.0000
  56 H            3.2491     1.9280    -0.0085 H            1    LIG   0.0000
  57 H            2.1359     3.9377     0.0090 H            1    LIG   0.0000
  58 H            0.7167     3.9555    -0.7987 H            1    LIG   0.0000
  59 H            0.7269     3.9468     0.8343 H            1    LIG   0.0000
  60 H           -0.4500     3.2721     3.6924 H            1    LIG   0.0000
  61 H            0.8687     5.1765     4.3078 H            1    LIG   0.0000
@<TRIPOS>BOND
   1        1        2 1
   2        2        3 1
   3        3        4 ar
   4        4        5 ar
   5        5        6 ar
   6        6        7 1
   7        7        8 1
   8        8        9 2
   9        8       10 2
  10        8       11 1
  11       11       12 ar
  12       12       13 ar
  13       13       14 1
  14       14       15 am
  15       15       16 2
  16       15       17 1
  17       17       18 ar
  18       18       19 ar
  19       19       20 ar
  20       20       21 1
  21       21       22 1
  22       22       23 2
  23       23       24 1
  24       23       25 1
  25       25       26 2
  26       26       21 1
  27       26       27 1
  28       20       28 ar
  29       28       29 ar
  30       29       17 ar
  31       13       30 ar
  32       30       31 ar
  33       31       32 ar
  34       32       11 ar
  35       32       33 1
  36        6       34 ar
  37       34       35 ar
  38       35        3 ar
  39        1       36 1
  40        1       37 1
  41        1       38 1
  42        4       39 1
  43        5       40 1
  44        7       41 1
  45       12       42 1
  46       14       43 1
  47       18       44 1
  48       19       45 1
  49       24       46 1
  50       24       47 1
  51       24       48 1
  52       25       49 1
  53       27       50 1
  54       27       51 1
  55       27       52 1
  56       28       53 1
  57       29       54 1
  58       30       55 1
  59       31       56 1
  60       33       57 1
  61       33       58 1
  62       33       59 1
  63       34       60 1
  64       35       61 1

@<TRIPOS>MOLECULE

  61   64
SMALL
USER_CHARGES
@<TRIPOS>ATOM
   1 C1           1.3121     8.3311     1.9226 C.3          1    LIG   0.0000
   2 O2           1.2543     7.2891     2.8855 O.3          1    LIG   0.0000
   3 C3           0.5100     6.2178     2.5386 C.ar         1    LIG   0.0000
   4 C4          -0.1316     6.1996     1.3045 C.ar         1    LIG   0.0000
   5 C5          -0.8951     5.0906     0.9542 C.ar         1    LIG   0.0000
   6 C6          -1.0092     4.0185     1.8336 C.ar         1    LIG   0.0000
   7 N7          -1.7811     2.9072     1.4719 N.pl3        1    LIG   0.0000
   8 S8          -1.5566     2.1959     0.0225 S.o2         1    LIG   0.0000
   9 O9          -1.5778     3.1974    -1.0120 O.2          1    LIG   0.0000
  10 O10         -2.6090     1.2414    -0.2118 O.2          1    LIG   0.0000
  11 C11         -0.0197     1.3799     0.0086 C.ar         1    LIG   0.0000
  12 C12         -0.0100    -0.0110     0.0013 C.ar         1    LIG   0.0000
  13 C13          1.2103    -0.6785    -0.0098 C.ar         1    LIG   0.0000
  14 N14          1.2274    -2.0788    -0.0171 N.am         1    LIG   0.0000
  15 C15          1.8354    -2.7617     1.0031 C.2          1    LIG   0.0000
  16 O16          2.3321    -3.8340     0.7950 O.2          1    LIG   0.0000
  17 C17          1.8788    -2.1885     2.3349 C.ar         1    LIG   0.0000
  18 C18          2.1032    -3.0154     3.4315 C.ar         1    LIG   0.0000
  19 C19          2.1461    -2.4749     4.7123 C.ar         1    LIG   0.0000
  20 C20          1.9613    -1.1063     4.8769 C.ar         1    LIG   0.0000
  21 N21          2.0029    -0.5558     6.1646 N.pl3        1    LIG   0.0000
  22 N22          3.0674    -0.4862     6.9273 N.2          1    LIG   0.0000
  23 C23          2.7646     0.0856     8.0688 C.2          1    LIG   0.0000
  24 C24          3.7252     0.3477     9.2164 C.3          1    LIG   0.0000
  25 C25          1.3939     0.4143     8.0421 C.2          1    LIG   0.0000
  26 C26          0.9495    -0.0051     6.8283 C.2          1    LIG   0.0000
  27 C27         -0.4731     0.1223     6.3082 C.3          1    LIG   0.0000
  28 C28          1.7359    -0.2720     3.7873 C.ar         1    LIG   0.0000
  29 C29          1.6959    -0.8209     2.5096 C.ar         1    LIG   0.0000
  30 C30          2.4109     0.0241    -0.0136 C.ar         1    LIG   0.0000
  31 C31          2.3905     1.4153    -0.0060 C.ar         1    LIG   0.0000
  32 C32          1.1754     2.0934     0.0050 C.ar         1    LIG   0.0000
  33 C33          1.1900     3.6133     0.0131 C.3          1    LIG   0.0000
  34 C34         -0.3637     4.0461     3.0651 C.ar         1    LIG   0.0000
  35 C35          0.4017     5.1502     3.4240 C.ar         1    LIG   0.0000
  36 H            1.8833     9.0747     2.2700 H            1    LIG   0.0000
  37 H            1.7044     7.9784     1.0730 H            1    LIG   0.0000
  38 H            0.3893     8.6739     1.7466 H            1    LIG   0.0000
  39 H           -0.0453     6.9737     0.6774 H            1    LIG   0.0000
  40 H           -1.3619     5.0640     0.0702 H            1    LIG   0.0000
  41 H           -2.4699     2.5501     2.1028 H            1    LIG   0.0000
  42 H           -0.8685    -0.5240     0.0041 H            1    LIG   0.0000
  43 H            0.7958    -2.5802    -0.7669 H            1    LIG   0.0000
  44 H            2.2336    -3.9979     3.2987 H            1    LIG   0.0000
  45 H            2.3077    -3.0629     5.5048 H            1    LIG   0.0000
  46 H            3.2358     0.7947     9.9652 H            1    LIG   0.0000
  47 H            4.1054    -0.5197     9.5375 H            1    LIG   0.0000
  48 H            4.4665     0.9405     8.9018 H            1    LIG   0.0000
  49 H            0.8624     0.8604     8.7622 H            1    LIG   0.0000
  50 H           -1.0427     0.5652     7.0005 H            1    LIG   0.0000
  51 H           -0.4747     0.6727     5.4733 H            1    LIG   0.0000
  52 H           -0.8377    -0.7872     6.1085 H            1    LIG   0.0000
  53 H            1.6042     0.7103     3.9206 H            1    LIG   0.0000
  54 H            1.5356    -0.2324     1.7171 H            1    LIG   0.0000
  55 H            3.2820    -0.4669    -0.0217 H            1    LIG   0.0000
  56 H            3.2491     1.9280    -0.0085 H            1    LIG   0.0000
  57 H            2.1359     3.9377     0.0090 H            1    LIG   0.0000
  58 H            0.7167     3.9555    -0.7987 H            1    LIG   0.0000
  59 H            0.7269     3.9468     0.8343 H            1    LIG   0.0000
  60 H           -0.4500     3.2721     3.6924 H            1    LIG   0.0000
  61 H            0.8687     5.1765     4.3078 H            1    LIG   0.0000
@<TRIPOS>BOND
   1        1        2 1
   2        2        3 1
   3        3        4 ar
   4        4        5 ar
   5        5        6 ar
   6        6        7 1
   7        7        8 1
   8        8        9 2
   9        8       10 2
  10        8       11 1
  11       11       12 ar
  12       12       13 ar
  13       13       14 1
  14       14       15 am
  15       15       16 2
  16       15       17 1
  17       17       18 ar
  18       18       19 ar
  19       19       20 ar
  20       20       21 1
  21       21       22 1
  22       22       23 2
  23       23       24 1
  24       23       25 1
  25       25       26 2
  26       26       21 1
  27       26       27 1
  28       20       28 ar
  29       28       29 ar
  30       29       17 ar
  31       13       30 ar
  32       30       31 ar
  33       31       32 ar
  34       32       11 ar
  35       32       33 1
  36        6       34 ar
  37       34       35 ar
  38       35        3 ar
  39        1       36 1
  40        1       37 1
  41        1       38 1
  42        4       39 1
  43        5       40 1
  44        7       41 1
  45       12       42 1
  46       14       43 1
  47       18       44 1
  48       19       45 1
  49       24       46 1
  50       24       47 1
  51       24       48 1
  52       25       49 1
  53       27       50 1
  54       27       51 1
  55       27       52 1
  56       28       53 1
  57       29       54 1
  58       30       55 1
  59       31       56 1
  60       33       57 1
  61       33       58 1
  62       33       59 1
  63       34       60 1
  64       35       61 1

@<TRIPOS>MOLECULE

  61   64
SMALL
USER_CHARGES
@<TRIPOS>ATOM
   1 C1           1.3121     8.3311     1.9226 C.3          1    LIG   0.0000
   2 O2           1.2543     7.2891     2.8855 O.3          1    LIG   0.0000
   3 C3           0.5100     6.2178     2.5386 C.ar         1    LIG   0.0000
   4 C4          -0.1316     6.1996     1.3045 C.ar         1    LIG   0.0000
   5 C5          -0.8951     5.0906     0.9542 C.ar         1    LIG   0.0000
   6 C6          -1.0092     4.0185     1.8336 C.ar         1    LIG   0.0000
   7 N7          -1.7811     2.9072     1.4719 N.pl3        1    LIG   0.0000
   8 S8          -1.5566     2.1959     0.0225 S.o2         1    LIG   0.0000
   9 O9          -1.5778     3.1974    -1.0120 O.2          1    LIG   0.0000
  10 O10         -2.6090     1.2414    -0.2118 O.2          1    LIG   0.0000
  11 C11         -0.0197     1.3799     0.0086 C.ar         1    LIG   0.0000
  12 C12         -0.0100    -0.0110     0.0013 C.ar         1    LIG   0.0000
  13 C13          1.2103    -0.6785    -0.0098 C.ar         1    LIG   0.0000
  14 N14          1.2274    -2.0788    -0.0171 N.am         1    LIG   0.0000
  15 C15          1.8224    -2.7512    -1.0518 C.2          1    LIG   0.0000
  16 O16          1.8371    -3.9511    -1.0580 O.2          1    LIG   0.0000
  17 C17          2.4347    -2.0127    -2.1399 C.ar         1    LIG   0.0000
  18 C18          3.3776    -2.6387    -2.9497 C.ar         1    LIG   0.0000
  19 C19          3.9703    -1.9385    -3.9950 C.ar         1    LIG   0.0000
  20 C20          3.6087    -0.6136    -4.2145 C.ar         1    LIG   0.0000
  21 N21          4.2025     0.0972    -5.2657 N.pl3        1    LIG   0.0000
  22 N22          3.5585     0.7912    -6.1730 N.2          1    LIG   0.0000
  23 C23          4.4103     1.3322    -7.0118 C.2          1    LIG   0.0000
  24 C24          4.0549     2.2075    -8.2017 C.3          1    LIG   0.0000
  25 C25          5.7106     0.9597    -6.6143 C.2          1    LIG   0.0000
  26 C26          5.5387     0.1830    -5.5126 C.2          1    LIG   0.0000
  27 C27          6.6461    -0.4706    -4.7022 C.3          1    LIG   0.0000
  28 C28          2.6679     0.0206    -3.4102 C.ar         1    LIG   0.0000
  29 C29          2.0791    -0.6876    -2.3676 C.ar         1    LIG   0.0000
  30 C30          2.4109     0.0241    -0.0136 C.ar         1    LIG   0.0000
  31 C31          2.3905     1.4153    -0.0060 C.ar         1    LIG   0.0000
  32 C32          1.1754     2.0934     0.0050 C.ar         1    LIG   0.0000
  33 C33          1.1900     3.6133     0.0131 C.3          1    LIG   0.0000
  34 C34         -0.3637     4.0461     3.0651 C.ar         1    LIG   0.0000
  35 C35          0.4017     5.1502     3.4240 C.ar         1    LIG   0.0000
  36 H            1.8833     9.0747     2.2700 H            1    LIG   0.0000
  37 H            1.7044     7.9784     1.0730 H            1    LIG   0.0000
  38 H            0.3893     8.6739     1.7466 H            1    LIG   0.0000
  39 H           -0.0453     6.9737     0.6774 H            1    LIG   0.0000
  40 H           -1.3619     5.0640     0.0702 H            1    LIG   0.0000
  41 H           -2.4699     2.5501     2.1028 H            1    LIG   0.0000
  42 H           -0.8685    -0.5240     0.0041 H            1    LIG   0.0000
  43 H            0.8053    -2.5878     0.7330 H            1    LIG   0.0000
  44 H            3.6289    -3.5916    -2.7800 H            1    LIG   0.0000
  45 H            4.6480    -2.3822    -4.5815 H            1    LIG   0.0000
  46 H            4.8921     2.4863    -8.6723 H            1    LIG   0.0000
  47 H            3.4737     1.6931    -8.8322 H            1    LIG   0.0000
  48 H            3.5651     3.0194    -7.8839 H            1    LIG   0.0000
  49 H            6.5745     1.2129    -7.0498 H            1    LIG   0.0000
  50 H            7.5327    -0.2431    -5.1050 H            1    LIG   0.0000
  51 H            6.6121    -0.1359    -3.7605 H            1    LIG   0.0000
  52 H            6.5222    -1.4629    -4.7079 H            1    LIG   0.0000
  53 H            2.4178     0.9739    -3.5793 H            1    LIG   0.0000
  54 H            1.4004    -0.2442    -1.7822 H            1    LIG   0.0000
  55 H            3.2820    -0.4669    -0.0217 H            1    LIG   0.0000
  56 H            3.2491     1.9280    -0.0085 H            1    LIG   0.0000
  57 H            2.1359     3.9377     0.0090 H            1    LIG   0.0000
  58 H            0.7167     3.9555    -0.7987 H            1    LIG   0.0000
  59 H            0.7269     3.9468     0.8343 H            1    LIG   0.0000
  60 H           -0.4500     3.2721     3.6924 H            1    LIG   0.0000
  61 H            0.8687     5.1765     4.3078 H            1    LIG   0.0000
@<TRIPOS>BOND
   1        1        2 1
   2        2        3 1
   3        3        4 ar
   4        4        5 ar
   5        5        6 ar
   6        6        7 1
   7        7        8 1
   8        8        9 2
   9        8       10 2
  10        8       11 1
  11       11       12 ar
  12       12       13 ar
  13       13       14 1
  14       14       15 am
  15       15       16 2
  16       15       17 1
  17       17       18 ar
  18       18       19 ar
  19       19       20 ar
  20       20       21 1
  21       21       22 1
  22       22       23 2
  23       23       24 1
  24       23       25 1
  25       25       26 2
  26       26       21 1
  27       26       27 1
  28       20       28 ar
  29       28       29 ar
  30       29       17 ar
  31       13       30 ar
  32       30       31 ar
  33       31       32 ar
  34       32       11 ar
  35       32       33 1
  36        6       34 ar
  37       34       35 ar
  38       35        3 ar
  39        1       36 1
  40        1       37 1
  41        1       38 1
  42        4       39 1
  43        5       40 1
  44        7       41 1
  45       12       42 1
  46       14       43 1
  47       18       44 1
  48       19       45 1
  49       24       46 1
  50       24       47 1
  51       24       48 1
  52       25       49 1
  53       27       50 1
  54       27       51 1
  55       27       52 1
  56       28       53 1
  57       29       54 1
  58       30       55 1
  59       31       56 1
  60       33       57 1
  61       33       58 1
  62       33       59 1
  63       34       60 1
  64       35       61 1

@<TRIPOS>MOLECULE

  61   64
SMALL
USER_CHARGES
@<TRIPOS>ATOM
   1 C1           0.9759     8.4842     2.1709 C.3          1    LIG   0.0000
   2 O2           1.2543     7.2891     2.8855 O.3          1    LIG   0.0000
   3 C3           0.5100     6.2178     2.5386 C.ar         1    LIG   0.0000
   4 C4          -0.1316     6.1996     1.3045 C.ar         1    LIG   0.0000
   5 C5          -0.8951     5.0906     0.9542 C.ar         1    LIG   0.0000
   6 C6          -1.0092     4.0185     1.8336 C.ar         1    LIG   0.0000
   7 N7          -1.7811     2.9072     1.4719 N.pl3        1    LIG   0.0000
   8 S8          -1.5566     2.1959     0.0225 S.o2         1    LIG   0.0000
   9 O9          -1.5778     3.1974    -1.0120 O.2          1    LIG   0.0000
  10 O10         -2.6090     1.2414    -0.2118 O.2          1    LIG   0.0000
  11 C11         -0.0197     1.3799     0.0086 C.ar         1    LIG   0.0000
  12 C12         -0.0100    -0.0110     0.0013 C.ar         1    LIG   0.0000
  13 C13          1.2103    -0.6785    -0.0098 C.ar         1    LIG   0.0000
  14 N14          1.2274    -2.0788    -0.0171 N.am         1    LIG   0.0000
  15 C15          1.8354    -2.7617     1.0031 C.2          1    LIG   0.0000
  16 O16          2.3321    -3.8340     0.7950 O.2          1    LIG   0.0000
  17 C17          1.8788    -2.1885     2.3349 C.ar         1    LIG   0.0000
  18 C18          3.0341    -2.3163     3.1003 C.ar         1    LIG   0.0000
  19 C19          3.0849    -1.7704     4.3784 C.ar         1    LIG   0.0000
  20 C20          1.9709    -1.1016     4.8746 C.ar         1    LIG   0.0000
  21 N21          2.0157    -0.5498     6.1616 N.pl3        1    LIG   0.0000
  22 N22          0.9718    -0.2329     6.8893 N.2          1    LIG   0.0000
  23 C23          1.3612     0.2594     8.0415 C.2          1    LIG   0.0000
  24 C24          0.4503     0.7430     9.1573 C.3          1    LIG   0.0000
  25 C25          2.7709     0.2595     8.0620 C.2          1    LIG   0.0000
  26 C26          3.1456    -0.2565     6.8621 C.2          1    LIG   0.0000
  27 C27          4.5753    -0.4681     6.3912 C.3          1    LIG   0.0000
  28 C28          0.8118    -0.9693     4.1175 C.ar         1    LIG   0.0000
  29 C29          0.7702    -1.5173     2.8395 C.ar         1    LIG   0.0000
  30 C30          2.4109     0.0241    -0.0136 C.ar         1    LIG   0.0000
  31 C31          2.3905     1.4153    -0.0060 C.ar         1    LIG   0.0000
  32 C32          1.1754     2.0934     0.0050 C.ar         1    LIG   0.0000
  33 C33          1.1900     3.6133     0.0131 C.3          1    LIG   0.0000
  34 C34         -0.3637     4.0461     3.0651 C.ar         1    LIG   0.0000
  35 C35          0.4017     5.1502     3.4240 C.ar         1    LIG   0.0000
  36 H            1.5747     9.2153     2.4980 H            1    LIG   0.0000
  37 H            1.1356     8.3340     1.1953 H            1    LIG   0.0000
  38 H            0.0215     8.7449     2.3163 H            1    LIG   0.0000
  39 H           -0.0453     6.9737     0.6774 H            1    LIG   0.0000
  40 H           -1.3619     5.0640     0.0702 H            1    LIG   0.0000
  41 H           -2.4699     2.5501     2.1028 H            1    LIG   0.0000
  42 H           -0.8685    -0.5240     0.0041 H            1    LIG   0.0000
  43 H            0.7958    -2.5802    -0.7669 H            1    LIG   0.0000
  44 H            3.8275    -2.8005     2.7313 H            1    LIG   0.0000
  45 H            3.9119    -1.8576     4.9337 H            1    LIG   0.0000
  46 H            1.0050     1.0686     9.9230 H            1    LIG   0.0000
  47 H           -0.1229     1.4897     8.8197 H            1    LIG   0.0000
  48 H           -0.1309    -0.0110     9.4635 H            1    LIG   0.0000
  49 H            3.3672     0.5724     8.8013 H            1    LIG   0.0000
  50 H            5.2090    -0.1664     7.1035 H            1    LIG   0.0000
  51 H            4.7238    -1.4388     6.2022 H            1    LIG   0.0000
  52 H            4.7337     0.0617     5.5580 H            1    LIG   0.0000
  53 H            0.0181    -0.4862     4.4873 H            1    LIG   0.0000
  54 H           -0.0566    -1.4287     2.2839 H            1    LIG   0.0000
  55 H            3.2820    -0.4669    -0.0217 H            1    LIG   0.0000
  56 H            3.2491     1.9280    -0.0085 H            1    LIG   0.0000
  57 H            2.1359     3.9377     0.0090 H            1    LIG   0.0000
  58 H            0.7167     3.9555    -0.7987 H            1    LIG   0.0000
  59 H            0.7269     3.9468     0.8343 H            1    LIG   0.0000
  60 H           -0.4500     3.2721     3.6924 H            1    LIG   0.0000
  61 H            0.8687     5.1765     4.3078 H            1    LIG   0.0000
@<TRIPOS>BOND
   1        1        2 1
   2        2        3 1
   3        3        4 ar
   4        4        5 ar
   5        5        6 ar
   6        6        7 1
   7        7        8 1
   8        8        9 2
   9        8       10 2
  10        8       11 1
  11       11       12 ar
  12       12       13 ar
  13       13       14 1
  14       14       15 am
  15       15       16 2
  16       15       17 1
  17       17       18 ar
  18       18       19 ar
  19       19       20 ar
  20       20       21 1
  21       21       22 1
  22       22       23 2
  23       23       24 1
  24       23       25 1
  25       25       26 2
  26       26       21 1
  27       26       27 1
  28       20       28 ar
  29       28       29 ar
  30       29       17 ar
  31       13       30 ar
  32       30       31 ar
  33       31       32 ar
  34       32       11 ar
  35       32       33 1
  36        6       34 ar
  37       34       35 ar
  38       35        3 ar
  39        1       36 1
  40        1       37 1
  41        1       38 1
  42        4       39 1
  43        5       40 1
  44        7       41 1
  45       12       42 1
  46       14       43 1
  47       18       44 1
  48       19       45 1
  49       24       46 1
  50       24       47 1
  51       24       48 1
  52       25       49 1
  53       27       50 1
  54       27       51 1
  55       27       52 1
  56       28       53 1
  57       29       54 1
  58       30       55 1
  59       31       56 1
  60       33       57 1
  61       33       58 1
  62       33       59 1
  63       34       60 1
  64       35       61 1

@<TRIPOS>MOLECULE

  61   64
SMALL
USER_CHARGES
@<TRIPOS>ATOM
   1 C1           0.9759     8.4842     2.1709 C.3          1    LIG   0.0000
   2 O2           1.2543     7.2891     2.8855 O.3          1    LIG   0.0000
   3 C3           0.5100     6.2178     2.5386 C.ar         1    LIG   0.0000
   4 C4          -0.1316     6.1996     1.3045 C.ar         1    LIG   0.0000
   5 C5          -0.8951     5.0906     0.9542 C.ar         1    LIG   0.0000
   6 C6          -1.0092     4.0185     1.8336 C.ar         1    LIG   0.0000
   7 N7          -1.7811     2.9072     1.4719 N.pl3        1    LIG   0.0000
   8 S8          -1.5566     2.1959     0.0225 S.o2         1    LIG   0.0000
   9 O9          -1.5778     3.1974    -1.0120 O.2          1    LIG   0.0000
  10 O10         -2.6090     1.2414    -0.2118 O.2          1    LIG   0.0000
  11 C11         -0.0197     1.3799     0.0086 C.ar         1    LIG   0.0000
  12 C12         -0.0100    -0.0110     0.0013 C.ar         1    LIG   0.0000
  13 C13          1.2103    -0.6785    -0.0098 C.ar         1    LIG   0.0000
  14 N14          1.2274    -2.0788    -0.0171 N.am         1    LIG   0.0000
  15 C15          1.8224    -2.7512    -1.0518 C.2          1    LIG   0.0000
  16 O16          2.7476    -2.2574    -1.6351 O.2          1    LIG   0.0000
  17 C17          1.3340    -4.0601    -1.4423 C.ar         1    LIG   0.0000
  18 C18          1.2545    -4.3887    -2.7923 C.ar         1    LIG   0.0000
  19 C19          0.7871    -5.6411    -3.1763 C.ar         1    LIG   0.0000
  20 C20          0.4029    -6.5507    -2.1969 C.ar         1    LIG   0.0000
  21 N21         -0.0692    -7.8138    -2.5773 N.pl3        1    LIG   0.0000
  22 N22          0.5652    -8.9475    -2.3990 N.2          1    LIG   0.0000
  23 C23         -0.1520    -9.9412    -2.8680 C.2          1    LIG   0.0000
  24 C24          0.2396   -11.4091    -2.8491 C.3          1    LIG   0.0000
  25 C25         -1.3478    -9.4077    -3.3906 C.2          1    LIG   0.0000
  26 C26         -1.2586    -8.0668    -3.1895 C.2          1    LIG   0.0000
  27 C27         -2.3057    -7.0363    -3.5796 C.3          1    LIG   0.0000
  28 C28          0.4782    -6.2312    -0.8454 C.ar         1    LIG   0.0000
  29 C29          0.9481    -4.9767    -0.4702 C.ar         1    LIG   0.0000
  30 C30          2.4109     0.0241    -0.0136 C.ar         1    LIG   0.0000
  31 C31          2.3905     1.4153    -0.0060 C.ar         1    LIG   0.0000
  32 C32          1.1754     2.0934     0.0050 C.ar         1    LIG   0.0000
  33 C33          1.1900     3.6133     0.0131 C.3          1    LIG   0.0000
  34 C34         -0.3637     4.0461     3.0651 C.ar         1    LIG   0.0000
  35 C35          0.4017     5.1502     3.4240 C.ar         1    LIG   0.0000
  36 H            1.5747     9.2153     2.4980 H            1    LIG   0.0000
  37 H            1.1356     8.3340     1.1953 H            1    LIG   0.0000
  38 H            0.0215     8.7449     2.3163 H            1    LIG   0.0000
  39 H           -0.0453     6.9737     0.6774 H            1    LIG   0.0000
  40 H           -1.3619     5.0640     0.0702 H            1    LIG   0.0000
  41 H           -2.4699     2.5501     2.1028 H            1    LIG   0.0000
  42 H           -0.8685    -0.5240     0.0041 H            1    LIG   0.0000
  43 H            0.8053    -2.5878     0.7330 H            1    LIG   0.0000
  44 H            1.5334    -3.7246    -3.4860 H            1    LIG   0.0000
  45 H            0.7281    -5.8844    -4.1444 H            1    LIG   0.0000
  46 H           -0.4865   -11.9532    -3.2695 H            1    LIG   0.0000
  47 H            1.0891   -11.5342    -3.3616 H            1    LIG   0.0000
  48 H            0.3738   -11.7061    -1.9037 H            1    LIG   0.0000
  49 H           -2.1004    -9.9088    -3.8177 H            1    LIG   0.0000
  50 H           -3.0805    -7.4961    -4.0134 H            1    LIG   0.0000
  51 H           -2.6196    -6.5539    -2.7618 H            1    LIG   0.0000
  52 H           -1.9058    -6.3808    -4.2203 H            1    LIG   0.0000
  53 H            0.1980    -6.8950    -0.1520 H            1    LIG   0.0000
  54 H            1.0083    -4.7341     0.4981 H            1    LIG   0.0000
  55 H            3.2820    -0.4669    -0.0217 H            1    LIG   0.0000
  56 H            3.2491     1.9280    -0.0085 H            1    LIG   0.0000
  57 H            2.1359     3.9377     0.0090 H            1    LIG   0.0000
  58 H            0.7167     3.9555    -0.7987 H            1    LIG   0.0000
  59 H            0.7269     3.9468     0.8343 H            1    LIG   0.0000
  60 H           -0.4500     3.2721     3.6924 H            1    LIG   0.0000
  61 H            0.8687     5.1765     4.3078 H            1    LIG   0.0000
@<TRIPOS>BOND
   1        1        2 1
   2        2        3 1
   3        3        4 ar
   4        4        5 ar
   5        5        6 ar
   6        6        7 1
   7        7        8 1
   8        8        9 2
   9        8       10 2
  10        8       11 1
  11       11       12 ar
  12       12       13 ar
  13       13       14 1
  14       14       15 am
  15       15       16 2
  16       15       17 1
  17       17       18 ar
  18       18       19 ar
  19       19       20 ar
  20       20       21 1
  21       21       22 1
  22       22       23 2
  23       23       24 1
  24       23       25 1
  25       25       26 2
  26       26       21 1
  27       26       27 1
  28       20       28 ar
  29       28       29 ar
  30       29       17 ar
  31       13       30 ar
  32       30       31 ar
  33       31       32 ar
  34       32       11 ar
  35       32       33 1
  36        6       34 ar
  37       34       35 ar
  38       35        3 ar
  39        1       36 1
  40        1       37 1
  41        1       38 1
  42        4       39 1
  43        5       40 1
  44        7       41 1
  45       12       42 1
  46       14       43 1
  47       18       44 1
  48       19       45 1
  49       24       46 1
  50       24       47 1
  51       24       48 1
  52       25       49 1
  53       27       50 1
  54       27       51 1
  55       27       52 1
  56       28       53 1
  57       29       54 1
  58       30       55 1
  59       31       56 1
  60       33       57 1
  61       33       58 1
  62       33       59 1
  63       34       60 1
  64       35       61 1

@<TRIPOS>MOLECULE

  61   64
SMALL
USER_CHARGES
@<TRIPOS>ATOM
   1 C1           0.9759     8.4842     2.1709 C.3          1    LIG   0.0000
   2 O2           1.2543     7.2891     2.8855 O.3          1    LIG   0.0000
   3 C3           0.5100     6.2178     2.5386 C.ar         1    LIG   0.0000
   4 C4          -0.1316     6.1996     1.3045 C.ar         1    LIG   0.0000
   5 C5          -0.8951     5.0906     0.9542 C.ar         1    LIG   0.0000
   6 C6          -1.0092     4.0185     1.8336 C.ar         1    LIG   0.0000
   7 N7          -1.7811     2.9072     1.4719 N.pl3        1    LIG   0.0000
   8 S8          -1.5566     2.1959     0.0225 S.o2         1    LIG   0.0000
   9 O9          -1.5778     3.1974    -1.0120 O.2          1    LIG   0.0000
  10 O10         -2.6090     1.2414    -0.2118 O.2          1    LIG   0.0000
  11 C11         -0.0197     1.3799     0.0086 C.ar         1    LIG   0.0000
  12 C12         -0.0100    -0.0110     0.0013 C.ar         1    LIG   0.0000
  13 C13          1.2103    -0.6785    -0.0098 C.ar         1    LIG   0.0000
  14 N14          1.2274    -2.0788    -0.0171 N.am         1    LIG   0.0000
  15 C15          1.8224    -2.7512    -1.0518 C.2          1    LIG   0.0000
  16 O16          1.8444    -2.2658    -2.1490 O.2          1    LIG   0.0000
  17 C17          2.4258    -4.0499    -0.8211 C.ar         1    LIG   0.0000
  18 C18          2.6482    -4.9047    -1.8965 C.ar         1    LIG   0.0000
  19 C19          3.2258    -6.1521    -1.6850 C.ar         1    LIG   0.0000
  20 C20          3.5732    -6.5276    -0.3917 C.ar         1    LIG   0.0000
  21 N21          4.1551    -7.7830    -0.1719 N.pl3        1    LIG   0.0000
  22 N22          5.4019    -7.9922     0.1764 N.2          1    LIG   0.0000
  23 C23          5.6229    -9.2797     0.2999 C.2          1    LIG   0.0000
  24 C24          6.9429    -9.9238     0.6889 C.3          1    LIG   0.0000
  25 C25          4.4218    -9.9585     0.0098 C.2          1    LIG   0.0000
  26 C26          3.5219    -8.9832    -0.2826 C.2          1    LIG   0.0000
  27 C27          2.0665    -9.1996    -0.6637 C.3          1    LIG   0.0000
  28 C28          3.3544    -5.6805     0.6894 C.ar         1    LIG   0.0000
  29 C29          2.7772    -4.4341     0.4685 C.ar         1    LIG   0.0000
  30 C30          2.4109     0.0241    -0.0136 C.ar         1    LIG   0.0000
  31 C31          2.3905     1.4153    -0.0060 C.ar         1    LIG   0.0000
  32 C32          1.1754     2.0934     0.0050 C.ar         1    LIG   0.0000
  33 C33          1.1900     3.6133     0.0131 C.3          1    LIG   0.0000
  34 C34         -0.3637     4.0461     3.0651 C.ar         1    LIG   0.0000
  35 C35          0.4017     5.1502     3.4240 C.ar         1    LIG   0.0000
  36 H            1.5747     9.2153     2.4980 H            1    LIG   0.0000
  37 H            1.1356     8.3340     1.1953 H            1    LIG   0.0000
  38 H            0.0215     8.7449     2.3163 H            1    LIG   0.0000
  39 H           -0.0453     6.9737     0.6774 H            1    LIG   0.0000
  40 H           -1.3619     5.0640     0.0702 H            1    LIG   0.0000
  41 H           -2.4699     2.5501     2.1028 H            1    LIG   0.0000
  42 H           -0.8685    -0.5240     0.0041 H            1    LIG   0.0000
  43 H            0.8053    -2.5878     0.7330 H            1    LIG   0.0000
  44 H            2.3928    -4.6222    -2.8212 H            1    LIG   0.0000
  45 H            3.3893    -6.7711    -2.4531 H            1    LIG   0.0000
  46 H            6.8357   -10.9178     0.7091 H            1    LIG   0.0000
  47 H            7.6439    -9.6777     0.0195 H            1    LIG   0.0000
  48 H            7.2180    -9.5997     1.5940 H            1    LIG   0.0000
  49 H            4.2655   -10.9462     0.0176 H            1    LIG   0.0000
  50 H            1.8654   -10.1792    -0.6691 H            1    LIG   0.0000
  51 H            1.4762    -8.7418     0.0011 H            1    LIG   0.0000
  52 H            1.9003    -8.8203    -1.5739 H            1    LIG   0.0000
  53 H            3.6087    -5.9639     1.6141 H            1    LIG   0.0000
  54 H            2.6151    -3.8147     1.2367 H            1    LIG   0.0000
  55 H            3.2820    -0.4669    -0.0217 H            1    LIG   0.0000
  56 H            3.2491     1.9280    -0.0085 H            1    LIG   0.0000
  57 H            2.1359     3.9377     0.0090 H            1    LIG   0.0000
  58 H            0.7167     3.9555    -0.7987 H            1    LIG   0.0000
  59 H            0.7269     3.9468     0.8343 H            1    LIG   0.0000
  60 H           -0.4500     3.2721     3.6924 H            1    LIG   0.0000
  61 H            0.8687     5.1765     4.3078 H            1    LIG   0.0000
@<TRIPOS>BOND
   1        1        2 1
   2        2        3 1
   3        3        4 ar
   4        4        5 ar
   5        5        6 ar
   6        6        7 1
   7        7        8 1
   8        8        9 2
   9        8       10 2
  10        8       11 1
  11       11       12 ar
  12       12       13 ar
  13       13       14 1
  14       14       15 am
  15       15       16 2
  16       15       17 1
  17       17       18 ar
  18       18       19 ar
  19       19       20 ar
  20       20       21 1
  21       21       22 1
  22       22       23 2
  23       23       24 1
  24       23       25 1
  25       25       26 2
  26       26       21 1
  27       26       27 1
  28       20       28 ar
  29       28       29 ar
  30       29       17 ar
  31       13       30 ar
  32       30       31 ar
  33       31       32 ar
  34       32       11 ar
  35       32       33 1
  36        6       34 ar
  37       34       35 ar
  38       35        3 ar
  39        1       36 1
  40        1       37 1
  41        1       38 1
  42        4       39 1
  43        5       40 1
  44        7       41 1
  45       12       42 1
  46       14       43 1
  47       18       44 1
  48       19       45 1
  49       24       46 1
  50       24       47 1
  51       24       48 1
  52       25       49 1
  53       27       50 1
  54       27       51 1
  55       27       52 1
  56       28       53 1
  57       29       54 1
  58       30       55 1
  59       31       56 1
  60       33       57 1
  61       33       58 1
  62       33       59 1
  63       34       60 1
  64       35       61 1

@<TRIPOS>MOLECULE

  61   64
SMALL
USER_CHARGES
@<TRIPOS>ATOM
   1 C1           1.6819     8.1108     1.8093 C.3          1    LIG   0.0000
   2 O2           1.2543     7.2891     2.8855 O.3          1    LIG   0.0000
   3 C3           0.5100     6.2178     2.5386 C.ar         1    LIG   0.0000
   4 C4          -0.1316     6.1996     1.3045 C.ar         1    LIG   0.0000
   5 C5          -0.8951     5.0906     0.9542 C.ar         1    LIG   0.0000
   6 C6          -1.0092     4.0185     1.8336 C.ar         1    LIG   0.0000
   7 N7          -1.7811     2.9072     1.4719 N.pl3        1    LIG   0.0000
   8 S8          -1.5566     2.1959     0.0225 S.o2         1    LIG   0.0000
   9 O9          -1.5778     3.1974    -1.0120 O.2          1    LIG   0.0000
  10 O10         -2.6090     1.2414    -0.2118 O.2          1    LIG   0.0000
  11 C11         -0.0197     1.3799     0.0086 C.ar         1    LIG   0.0000
  12 C12         -0.0100    -0.0110     0.0013 C.ar         1    LIG   0.0000
  13 C13          1.2103    -0.6785    -0.0098 C.ar         1    LIG   0.0000
  14 N14          1.2274    -2.0788    -0.0171 N.am         1    LIG   0.0000
  15 C15          2.1494    -2.7565     0.7363 C.2          1    LIG   0.0000
  16 O16          2.5587    -2.2773     1.7575 O.2          1    LIG   0.0000
  17 C17          2.6308    -4.0532     0.2995 C.ar         1    LIG   0.0000
  18 C18          3.5674    -4.7338     1.0717 C.ar         1    LIG   0.0000
  19 C19          4.0351    -5.9775     0.6608 C.ar         1    LIG   0.0000
  20 C20          3.5559    -6.5238    -0.5251 C.ar         1    LIG   0.0000
  21 N21          4.0235    -7.7761    -0.9447 N.pl3        1    LIG   0.0000
  22 N22          3.2701    -8.7832    -1.3160 N.2          1    LIG   0.0000
  23 C23          4.0212    -9.8066    -1.6479 C.2          1    LIG   0.0000
  24 C24          3.5226   -11.1584    -2.1302 C.3          1    LIG   0.0000
  25 C25          5.3696    -9.4311    -1.4795 C.2          1    LIG   0.0000
  26 C26          5.3302    -8.1473    -1.0358 C.2          1    LIG   0.0000
  27 C27          6.5353    -7.2827    -0.7031 C.3          1    LIG   0.0000
  28 C28          2.6204    -5.8510    -1.3037 C.ar         1    LIG   0.0000
  29 C29          2.1570    -4.6081    -0.8845 C.ar         1    LIG   0.0000
  30 C30          2.4109     0.0241    -0.0136 C.ar         1    LIG   0.0000
  31 C31          2.3905     1.4153    -0.0060 C.ar         1    LIG   0.0000
  32 C32          1.1754     2.0934     0.0050 C.ar         1    LIG   0.0000
  33 C33          1.1900     3.6133     0.0131 C.3          1    LIG   0.0000
  34 C34         -0.3637     4.0461     3.0651 C.ar         1    LIG   0.0000
  35 C35          0.4017     5.1502     3.4240 C.ar         1    LIG   0.0000
  36 H            2.2229     8.8725     2.1660 H            1    LIG   0.0000
  37 H            2.2408     7.5712     1.1796 H            1    LIG   0.0000
  38 H            0.8834     8.4674     1.3244 H            1    LIG   0.0000
  39 H           -0.0453     6.9737     0.6774 H            1    LIG   0.0000
  40 H           -1.3619     5.0640     0.0702 H            1    LIG   0.0000
  41 H           -2.4699     2.5501     2.1028 H            1    LIG   0.0000
  42 H           -0.8685    -0.5240     0.0041 H            1    LIG   0.0000
  43 H            0.5666    -2.5840    -0.5721 H            1    LIG   0.0000
  44 H            3.9040    -4.3288     1.9218 H            1    LIG   0.0000
  45 H            4.7074    -6.4726     1.2110 H            1    LIG   0.0000
  46 H            4.3034   -11.7556    -2.3138 H            1    LIG   0.0000
  47 H            2.9454   -11.5715    -1.4257 H            1    LIG   0.0000
  48 H            2.9908   -11.0378    -2.9684 H            1    LIG   0.0000
  49 H            6.1812    -9.9898    -1.6500 H            1    LIG   0.0000
  50 H            7.3736    -7.8049    -0.8596 H            1    LIG   0.0000
  51 H            6.5344    -6.4708    -1.2869 H            1    LIG   0.0000
  52 H            6.4906    -7.0035     0.2561 H            1    LIG   0.0000
  53 H            2.2850    -6.2557    -2.1545 H            1    LIG   0.0000
  54 H            1.4836    -4.1138    -1.4342 H            1    LIG   0.0000
  55 H            3.2820    -0.4669    -0.0217 H            1    LIG   0.0000
  56 H            3.2491     1.9280    -0.0085 H            1    LIG   0.0000
  57 H            2.1359     3.9377     0.0090 H            1    LIG   0.0000
  58 H            0.7167     3.9555    -0.7987 H            1    LIG   0.0000
  59 H            0.7269     3.9468     0.8343 H            1    LIG   0.0000
  60 H           -0.4500     3.2721     3.6924 H            1    LIG   0.0000
  61 H            0.8687     5.1765     4.3078 H            1    LIG   0.0000
@<TRIPOS>BOND
   1        1        2 1
   2        2        3 1
   3        3        4 ar
   4        4        5 ar
   5        5        6 ar
   6        6        7 1
   7        7        8 1
   8        8        9 2
   9        8       10 2
  10        8       11 1
  11       11       12 ar
  12       12       13 ar
  13       13       14 1
  14       14       15 am
  15       15       16 2
  16       15       17 1
  17       17       18 ar
  18       18       19 ar
  19       19       20 ar
  20       20       21 1
  21       21       22 1
  22       22       23 2
  23       23       24 1
  24       23       25 1
  25       25       26 2
  26       26       21 1
  27       26       27 1
  28       20       28 ar
  29       28       29 ar
  30       29       17 ar
  31       13       30 ar
  32       30       31 ar
  33       31       32 ar
  34       32       11 ar
  35       32       33 1
  36        6       34 ar
  37       34       35 ar
  38       35        3 ar
  39        1       36 1
  40        1       37 1
  41        1       38 1
  42        4       39 1
  43        5       40 1
  44        7       41 1
  45       12       42 1
  46       14       43 1
  47       18       44 1
  48       19       45 1
  49       24       46 1
  50       24       47 1
  51       24       48 1
  52       25       49 1
  53       27       50 1
  54       27       51 1
  55       27       52 1
  56       28       53 1
  57       29       54 1
  58       30       55 1
  59       31       56 1
  60       33       57 1
  61       33       58 1
  62       33       59 1
  63       34       60 1
  64       35       61 1

