@<TRIPOS>MOLECULE
*****
 61 64 0 0 0
SMALL
USER_CHARGES

@<TRIPOS>ATOM
      1 C1          1.6819    8.1108    1.8093 C.3     1  LIG1        0.0000
      2 O2          1.2543    7.2891    2.8855 O.2     1  LIG1        0.0000
      3 C3          0.5100    6.2178    2.5386 C.3     1  LIG1        0.0000
      4 C4         -0.1316    6.1996    1.3045 C.3     1  LIG1        0.0000
      5 C5         -0.8951    5.0906    0.9542 C.3     1  LIG1        0.0000
      6 C6         -1.0092    4.0185    1.8336 C.3     1  LIG1        0.0000
      7 N7         -1.7811    2.9072    1.4719 N.pl3   1  LIG1        0.0000
      8 S8         -1.5566    2.1959    0.0225 S.O2    1  LIG1        0.0000
      9 O9         -1.5778    3.1974   -1.0120 O.2     1  LIG1        0.0000
     10 O10        -2.6090    1.2414   -0.2118 O.2     1  LIG1        0.0000
     11 C11        -0.0197    1.3799    0.0086 C.3     1  LIG1        0.0000
     12 C12        -0.0100   -0.0110    0.0013 C.3     1  LIG1        0.0000
     13 C13         1.2103   -0.6785   -0.0098 C.3     1  LIG1        0.0000
     14 N14         1.2274   -2.0788   -0.0171 N.am    1  LIG1        0.0000
     15 C15         2.1494   -2.7565    0.7363 C.2     1  LIG1        0.0000
     16 O16         2.5587   -2.2773    1.7575 O.2     1  LIG1        0.0000
     17 C17         2.6308   -4.0532    0.2995 C.3     1  LIG1        0.0000
     18 C18         3.5674   -4.7338    1.0717 C.3     1  LIG1        0.0000
     19 C19         4.0351   -5.9775    0.6608 C.3     1  LIG1        0.0000
     20 C20         3.5559   -6.5238   -0.5251 C.3     1  LIG1        0.0000
     21 N21         4.0235   -7.7761   -0.9447 N.pl3   1  LIG1        0.0000
     22 N22         3.2701   -8.7832   -1.3160 N.2     1  LIG1        0.0000
     23 C23         4.0212   -9.8066   -1.6479 C.2     1  LIG1        0.0000
     24 C24         3.5226  -11.1584   -2.1302 C.3     1  LIG1        0.0000
     25 C25         5.3696   -9.4311   -1.4795 C.2     1  LIG1        0.0000
     26 C26         5.3302   -8.1473   -1.0358 C.2     1  LIG1        0.0000
     27 C27         6.5353   -7.2827   -0.7031 C.3     1  LIG1        0.0000
     28 C28         2.6204   -5.8510   -1.3037 C.3     1  LIG1        0.0000
     29 C29         2.1570   -4.6081   -0.8845 C.3     1  LIG1        0.0000
     30 C30         2.4109    0.0241   -0.0136 C.3     1  LIG1        0.0000
     31 C31         2.3905    1.4153   -0.0060 C.3     1  LIG1        0.0000
     32 C32         1.1754    2.0934    0.0050 C.3     1  LIG1        0.0000
     33 C33         1.1900    3.6133    0.0131 C.3     1  LIG1        0.0000
     34 C34        -0.3637    4.0461    3.0651 C.3     1  LIG1        0.0000
     35 C35         0.4017    5.1502    3.4240 C.3     1  LIG1        0.0000
     36 H           2.2229    8.8725    2.1660 H       1  LIG1        0.0000
     37 H           2.2408    7.5712    1.1796 H       1  LIG1        0.0000
     38 H           0.8834    8.4674    1.3244 H       1  LIG1        0.0000
     39 H          -0.0453    6.9737    0.6774 H       1  LIG1        0.0000
     40 H          -1.3619    5.0640    0.0702 H       1  LIG1        0.0000
     41 H          -2.4699    2.5501    2.1028 H       1  LIG1        0.0000
     42 H          -0.8685   -0.5240    0.0041 H       1  LIG1        0.0000
     43 H           0.5666   -2.5840   -0.5721 H       1  LIG1        0.0000
     44 H           3.9040   -4.3288    1.9218 H       1  LIG1        0.0000
     45 H           4.7074   -6.4726    1.2110 H       1  LIG1        0.0000
     46 H           4.3034  -11.7556   -2.3138 H       1  LIG1        0.0000
     47 H           2.9454  -11.5715   -1.4257 H       1  LIG1        0.0000
     48 H           2.9908  -11.0378   -2.9684 H       1  LIG1        0.0000
     49 H           6.1812   -9.9898   -1.6500 H       1  LIG1        0.0000
     50 H           7.3736   -7.8049   -0.8596 H       1  LIG1        0.0000
     51 H           6.5344   -6.4708   -1.2869 H       1  LIG1        0.0000
     52 H           6.4906   -7.0035    0.2561 H       1  LIG1        0.0000
     53 H           2.2850   -6.2557   -2.1545 H       1  LIG1        0.0000
     54 H           1.4836   -4.1138   -1.4342 H       1  LIG1        0.0000
     55 H           3.2820   -0.4669   -0.0217 H       1  LIG1        0.0000
     56 H           3.2491    1.9280   -0.0085 H       1  LIG1        0.0000
     57 H           2.1359    3.9377    0.0090 H       1  LIG1        0.0000
     58 H           0.7167    3.9555   -0.7987 H       1  LIG1        0.0000
     59 H           0.7269    3.9468    0.8343 H       1  LIG1        0.0000
     60 H          -0.4500    3.2721    3.6924 H       1  LIG1        0.0000
     61 H           0.8687    5.1765    4.3078 H       1  LIG1        0.0000
@<TRIPOS>BOND
     1     1     2    1
     2     2     3    1
     3     3     4   ar
     4     4     5   ar
     5     5     6   ar
     6     6     7    1
     7     7     8    1
     8     8     9    2
     9     8    10    2
    10     8    11    1
    11    11    12   ar
    12    12    13   ar
    13    13    14    1
    14    14    15   am
    15    15    16    2
    16    15    17    1
    17    17    18   ar
    18    18    19   ar
    19    19    20   ar
    20    20    21    1
    21    21    22    1
    22    22    23    2
    23    23    24    1
    24    23    25    1
    25    25    26    2
    26    26    21    1
    27    26    27    1
    28    20    28   ar
    29    28    29   ar
    30    29    17   ar
    31    13    30   ar
    32    30    31   ar
    33    31    32   ar
    34    32    11   ar
    35    32    33    1
    36     6    34   ar
    37    34    35   ar
    38    35     3   ar
    39     1    36    1
    40     1    37    1
    41     1    38    1
    42     4    39    1
    43     5    40    1
    44     7    41    1
    45    12    42    1
    46    14    43    1
    47    18    44    1
    48    19    45    1
    49    24    46    1
    50    24    47    1
    51    24    48    1
    52    25    49    1
    53    27    50    1
    54    27    51    1
    55    27    52    1
    56    28    53    1
    57    29    54    1
    58    30    55    1
    59    31    56    1
    60    33    57    1
    61    33    58    1
    62    33    59    1
    63    34    60    1
    64    35    61    1
