@<TRIPOS>MOLECULE
*****
 61 64 0 0 0
SMALL
USER_CHARGES

@<TRIPOS>ATOM
      1 C1          0.9759    8.4842    2.1709 C.3     1  LIG1        0.0000
      2 O2          1.2543    7.2891    2.8855 O.2     1  LIG1        0.0000
      3 C3          0.5100    6.2178    2.5386 C.3     1  LIG1        0.0000
      4 C4         -0.1316    6.1996    1.3045 C.3     1  LIG1        0.0000
      5 C5         -0.8951    5.0906    0.9542 C.3     1  LIG1        0.0000
      6 C6         -1.0092    4.0185    1.8336 C.3     1  LIG1        0.0000
      7 N7         -1.7811    2.9072    1.4719 N.pl3   1  LIG1        0.0000
      8 S8         -1.5566    2.1959    0.0225 S.O2    1  LIG1        0.0000
      9 O9         -1.5778    3.1974   -1.0120 O.2     1  LIG1        0.0000
     10 O10        -2.6090    1.2414   -0.2118 O.2     1  LIG1        0.0000
     11 C11        -0.0197    1.3799    0.0086 C.3     1  LIG1        0.0000
     12 C12        -0.0100   -0.0110    0.0013 C.3     1  LIG1        0.0000
     13 C13         1.2103   -0.6785   -0.0098 C.3     1  LIG1        0.0000
     14 N14         1.2274   -2.0788   -0.0171 N.am    1  LIG1        0.0000
     15 C15         1.8354   -2.7617    1.0031 C.2     1  LIG1        0.0000
     16 O16         2.3321   -3.8340    0.7950 O.2     1  LIG1        0.0000
     17 C17         1.8788   -2.1885    2.3349 C.3     1  LIG1        0.0000
     18 C18         3.0341   -2.3163    3.1003 C.3     1  LIG1        0.0000
     19 C19         3.0849   -1.7704    4.3784 C.3     1  LIG1        0.0000
     20 C20         1.9709   -1.1016    4.8746 C.3     1  LIG1        0.0000
     21 N21         2.0157   -0.5498    6.1616 N.pl3   1  LIG1        0.0000
     22 N22         0.9718   -0.2329    6.8893 N.2     1  LIG1        0.0000
     23 C23         1.3612    0.2594    8.0415 C.2     1  LIG1        0.0000
     24 C24         0.4503    0.7430    9.1573 C.3     1  LIG1        0.0000
     25 C25         2.7709    0.2595    8.0620 C.2     1  LIG1        0.0000
     26 C26         3.1456   -0.2565    6.8621 C.2     1  LIG1        0.0000
     27 C27         4.5753   -0.4681    6.3912 C.3     1  LIG1        0.0000
     28 C28         0.8118   -0.9693    4.1175 C.3     1  LIG1        0.0000
     29 C29         0.7702   -1.5173    2.8395 C.3     1  LIG1        0.0000
     30 C30         2.4109    0.0241   -0.0136 C.3     1  LIG1        0.0000
     31 C31         2.3905    1.4153   -0.0060 C.3     1  LIG1        0.0000
     32 C32         1.1754    2.0934    0.0050 C.3     1  LIG1        0.0000
     33 C33         1.1900    3.6133    0.0131 C.3     1  LIG1        0.0000
     34 C34        -0.3637    4.0461    3.0651 C.3     1  LIG1        0.0000
     35 C35         0.4017    5.1502    3.4240 C.3     1  LIG1        0.0000
     36 H           1.5747    9.2153    2.4980 H       1  LIG1        0.0000
     37 H           1.1356    8.3340    1.1953 H       1  LIG1        0.0000
     38 H           0.0215    8.7449    2.3163 H       1  LIG1        0.0000
     39 H          -0.0453    6.9737    0.6774 H       1  LIG1        0.0000
     40 H          -1.3619    5.0640    0.0702 H       1  LIG1        0.0000
     41 H          -2.4699    2.5501    2.1028 H       1  LIG1        0.0000
     42 H          -0.8685   -0.5240    0.0041 H       1  LIG1        0.0000
     43 H           0.7958   -2.5802   -0.7669 H       1  LIG1        0.0000
     44 H           3.8275   -2.8005    2.7313 H       1  LIG1        0.0000
     45 H           3.9119   -1.8576    4.9337 H       1  LIG1        0.0000
     46 H           1.0050    1.0686    9.9230 H       1  LIG1        0.0000
     47 H          -0.1229    1.4897    8.8197 H       1  LIG1        0.0000
     48 H          -0.1309   -0.0110    9.4635 H       1  LIG1        0.0000
     49 H           3.3672    0.5724    8.8013 H       1  LIG1        0.0000
     50 H           5.2090   -0.1664    7.1035 H       1  LIG1        0.0000
     51 H           4.7238   -1.4388    6.2022 H       1  LIG1        0.0000
     52 H           4.7337    0.0617    5.5580 H       1  LIG1        0.0000
     53 H           0.0181   -0.4862    4.4873 H       1  LIG1        0.0000
     54 H          -0.0566   -1.4287    2.2839 H       1  LIG1        0.0000
     55 H           3.2820   -0.4669   -0.0217 H       1  LIG1        0.0000
     56 H           3.2491    1.9280   -0.0085 H       1  LIG1        0.0000
     57 H           2.1359    3.9377    0.0090 H       1  LIG1        0.0000
     58 H           0.7167    3.9555   -0.7987 H       1  LIG1        0.0000
     59 H           0.7269    3.9468    0.8343 H       1  LIG1        0.0000
     60 H          -0.4500    3.2721    3.6924 H       1  LIG1        0.0000
     61 H           0.8687    5.1765    4.3078 H       1  LIG1        0.0000
@<TRIPOS>BOND
     1     1     2    1
     2     2     3    1
     3     3     4   ar
     4     4     5   ar
     5     5     6   ar
     6     6     7    1
     7     7     8    1
     8     8     9    2
     9     8    10    2
    10     8    11    1
    11    11    12   ar
    12    12    13   ar
    13    13    14    1
    14    14    15   am
    15    15    16    2
    16    15    17    1
    17    17    18   ar
    18    18    19   ar
    19    19    20   ar
    20    20    21    1
    21    21    22    1
    22    22    23    2
    23    23    24    1
    24    23    25    1
    25    25    26    2
    26    26    21    1
    27    26    27    1
    28    20    28   ar
    29    28    29   ar
    30    29    17   ar
    31    13    30   ar
    32    30    31   ar
    33    31    32   ar
    34    32    11   ar
    35    32    33    1
    36     6    34   ar
    37    34    35   ar
    38    35     3   ar
    39     1    36    1
    40     1    37    1
    41     1    38    1
    42     4    39    1
    43     5    40    1
    44     7    41    1
    45    12    42    1
    46    14    43    1
    47    18    44    1
    48    19    45    1
    49    24    46    1
    50    24    47    1
    51    24    48    1
    52    25    49    1
    53    27    50    1
    54    27    51    1
    55    27    52    1
    56    28    53    1
    57    29    54    1
    58    30    55    1
    59    31    56    1
    60    33    57    1
    61    33    58    1
    62    33    59    1
    63    34    60    1
    64    35    61    1
