@<TRIPOS>MOLECULE
*****
 61 64 0 0 0
SMALL
USER_CHARGES

@<TRIPOS>ATOM
      1 C1          1.3121    8.3311    1.9226 C.3     1  LIG1        0.0000
      2 O2          1.2543    7.2891    2.8855 O.2     1  LIG1        0.0000
      3 C3          0.5100    6.2178    2.5386 C.3     1  LIG1        0.0000
      4 C4         -0.1316    6.1996    1.3045 C.3     1  LIG1        0.0000
      5 C5         -0.8951    5.0906    0.9542 C.3     1  LIG1        0.0000
      6 C6         -1.0092    4.0185    1.8336 C.3     1  LIG1        0.0000
      7 N7         -1.7811    2.9072    1.4719 N.pl3   1  LIG1        0.0000
      8 S8         -1.5566    2.1959    0.0225 S.O2    1  LIG1        0.0000
      9 O9         -1.5778    3.1974   -1.0120 O.2     1  LIG1        0.0000
     10 O10        -2.6090    1.2414   -0.2118 O.2     1  LIG1        0.0000
     11 C11        -0.0197    1.3799    0.0086 C.3     1  LIG1        0.0000
     12 C12        -0.0100   -0.0110    0.0013 C.3     1  LIG1        0.0000
     13 C13         1.2103   -0.6785   -0.0098 C.3     1  LIG1        0.0000
     14 N14         1.2274   -2.0788   -0.0171 N.am    1  LIG1        0.0000
     15 C15         1.8354   -2.7617    1.0031 C.2     1  LIG1        0.0000
     16 O16         2.3534   -2.1600    1.9029 O.2     1  LIG1        0.0000
     17 C17         1.8531   -4.2121    0.9956 C.3     1  LIG1        0.0000
     18 C18         1.6589   -4.9075    2.1854 C.3     1  LIG1        0.0000
     19 C19         1.6747   -6.2982    2.1880 C.3     1  LIG1        0.0000
     20 C20         1.8872   -6.9759    0.9922 C.3     1  LIG1        0.0000
     21 N21         1.9046   -8.3768    0.9884 N.pl3   1  LIG1        0.0000
     22 N22         2.4533   -9.1325    1.9090 N.2     1  LIG1        0.0000
     23 C23         2.2928  -10.3986    1.6041 C.2     1  LIG1        0.0000
     24 C24         2.7872  -11.5811    2.4201 C.3     1  LIG1        0.0000
     25 C25         1.5813  -10.4680    0.3890 C.2     1  LIG1        0.0000
     26 C26         1.3555   -9.1762    0.0329 C.2     1  LIG1        0.0000
     27 C27         0.6180   -8.7117   -1.2124 C.3     1  LIG1        0.0000
     28 C28         2.0828   -6.2898   -0.2015 C.3     1  LIG1        0.0000
     29 C29         2.0642   -4.8987   -0.1953 C.3     1  LIG1        0.0000
     30 C30         2.4109    0.0241   -0.0136 C.3     1  LIG1        0.0000
     31 C31         2.3905    1.4153   -0.0060 C.3     1  LIG1        0.0000
     32 C32         1.1754    2.0934    0.0050 C.3     1  LIG1        0.0000
     33 C33         1.1900    3.6133    0.0131 C.3     1  LIG1        0.0000
     34 C34        -0.3637    4.0461    3.0651 C.3     1  LIG1        0.0000
     35 C35         0.4017    5.1502    3.4240 C.3     1  LIG1        0.0000
     36 H           1.8833    9.0747    2.2700 H       1  LIG1        0.0000
     37 H           1.7044    7.9784    1.0730 H       1  LIG1        0.0000
     38 H           0.3893    8.6739    1.7466 H       1  LIG1        0.0000
     39 H          -0.0453    6.9737    0.6774 H       1  LIG1        0.0000
     40 H          -1.3619    5.0640    0.0702 H       1  LIG1        0.0000
     41 H          -2.4699    2.5501    2.1028 H       1  LIG1        0.0000
     42 H          -0.8685   -0.5240    0.0041 H       1  LIG1        0.0000
     43 H           0.7958   -2.5802   -0.7669 H       1  LIG1        0.0000
     44 H           1.5081   -4.4074    3.0381 H       1  LIG1        0.0000
     45 H           1.5351   -6.8044    3.0390 H       1  LIG1        0.0000
     46 H           2.5312  -12.4324    1.9622 H       1  LIG1        0.0000
     47 H           3.7824  -11.5345    2.5053 H       1  LIG1        0.0000
     48 H           2.3732  -11.5545    3.3300 H       1  LIG1        0.0000
     49 H           1.3026  -11.2916   -0.1051 H       1  LIG1        0.0000
     50 H           0.3201   -9.5074   -1.7397 H       1  LIG1        0.0000
     51 H          -0.1798   -8.1712   -0.9452 H       1  LIG1        0.0000
     52 H           1.2285   -8.1508   -1.7716 H       1  LIG1        0.0000
     53 H           2.2350   -6.7901   -1.0539 H       1  LIG1        0.0000
     54 H           2.2026   -4.3927   -1.0467 H       1  LIG1        0.0000
     55 H           3.2820   -0.4669   -0.0217 H       1  LIG1        0.0000
     56 H           3.2491    1.9280   -0.0085 H       1  LIG1        0.0000
     57 H           2.1359    3.9377    0.0090 H       1  LIG1        0.0000
     58 H           0.7167    3.9555   -0.7987 H       1  LIG1        0.0000
     59 H           0.7269    3.9468    0.8343 H       1  LIG1        0.0000
     60 H          -0.4500    3.2721    3.6924 H       1  LIG1        0.0000
     61 H           0.8687    5.1765    4.3078 H       1  LIG1        0.0000
@<TRIPOS>BOND
     1     1     2    1
     2     2     3    1
     3     3     4   ar
     4     4     5   ar
     5     5     6   ar
     6     6     7    1
     7     7     8    1
     8     8     9    2
     9     8    10    2
    10     8    11    1
    11    11    12   ar
    12    12    13   ar
    13    13    14    1
    14    14    15   am
    15    15    16    2
    16    15    17    1
    17    17    18   ar
    18    18    19   ar
    19    19    20   ar
    20    20    21    1
    21    21    22    1
    22    22    23    2
    23    23    24    1
    24    23    25    1
    25    25    26    2
    26    26    21    1
    27    26    27    1
    28    20    28   ar
    29    28    29   ar
    30    29    17   ar
    31    13    30   ar
    32    30    31   ar
    33    31    32   ar
    34    32    11   ar
    35    32    33    1
    36     6    34   ar
    37    34    35   ar
    38    35     3   ar
    39     1    36    1
    40     1    37    1
    41     1    38    1
    42     4    39    1
    43     5    40    1
    44     7    41    1
    45    12    42    1
    46    14    43    1
    47    18    44    1
    48    19    45    1
    49    24    46    1
    50    24    47    1
    51    24    48    1
    52    25    49    1
    53    27    50    1
    54    27    51    1
    55    27    52    1
    56    28    53    1
    57    29    54    1
    58    30    55    1
    59    31    56    1
    60    33    57    1
    61    33    58    1
    62    33    59    1
    63    34    60    1
    64    35    61    1
