@<TRIPOS>MOLECULE
*****
 52 56 0 0 0
SMALL
USER_CHARGES

@<TRIPOS>ATOM
      1 N1         -0.6971    4.9775   -0.0034 N.1     1  LIG1        0.0000
      2 C2          0.1977    4.2711   -0.0097 C.1     1  LIG1        0.0000
      3 C3          1.2886    3.4097   -0.0175 C.2     1  LIG1        0.0000
      4 C4          2.7005    3.9719   -0.0472 C.2     1  LIG1        0.0000
      5 O5          3.1743    4.3494   -1.0831 O.2     1  LIG1        0.0000
      6 C6          3.4751    4.0519    1.1763 C.3     1  LIG1        0.0000
      7 C7          4.7665    4.5676    1.1408 C.3     1  LIG1        0.0000
      8 C8          5.5024    4.6400    2.3189 C.3     1  LIG1        0.0000
      9 C9          4.9457    4.1997    3.5158 C.3     1  LIG1        0.0000
     10 C10         3.6533    3.6857    3.5420 C.3     1  LIG1        0.0000
     11 C11         2.9106    3.6091    2.3681 C.3     1  LIG1        0.0000
     12 C12         1.0980    2.1006    0.0010 C.2     1  LIG1        0.0000
     13 S13         2.3384    0.8871   -0.0077 S.3     1  LIG1        0.0000
     14 C14         1.2792   -0.4873    0.0192 C.2     1  LIG1        0.0000
     15 C15         1.6350   -1.7556    0.0248 C.2     1  LIG1        0.0000
     16 C16         0.6308   -2.7836    0.0515 C.2     1  LIG1        0.0000
     17 C17        -0.2267   -2.8096    1.1079 C.2     1  LIG1        0.0000
     18 S18        -1.2401   -4.1370    0.7734 S.3     1  LIG1        0.0000
     19 C19        -0.5354   -4.6137   -0.6998 C.2     1  LIG1        0.0000
     20 N20        -0.9622   -5.6948   -1.4838 N.pl3   1  LIG1        1.0000
     21 O21        -1.9003   -6.3694   -1.1248 O.2     1  LIG1        0.0000
     22 O22        -0.3877   -5.9553   -2.5281 O.2     1  LIG1       -1.0000
     23 C23         0.4931   -3.7602   -0.9669 C.2     1  LIG1        0.0000
     24 C24        -0.0669    0.0386    0.0373 C.2     1  LIG1        0.0000
     25 O25        -1.0593   -0.6738    0.0579 O.2     1  LIG1        0.0000
     26 N26        -0.1229    1.4359    0.0288 N.am    1  LIG1        0.0000
     27 C27        -1.3259    2.1520    0.0500 C.3     1  LIG1        0.0000
     28 C28        -1.9562    2.4937   -1.1412 C.3     1  LIG1        0.0000
     29 C29        -3.1557    3.1929   -1.0934 C.3     1  LIG1        0.0000
     30 C30        -3.7100    3.5356    0.1297 C.3     1  LIG1        0.0000
     31 C31        -3.0738    3.1996    1.3083 C.3     1  LIG1        0.0000
     32 C32        -1.8706    2.5004    1.2804 C.3     1  LIG1        0.0000
     33 C33        -3.9087    3.7020    2.4717 C.3     1  LIG1        0.0000
     34 C34        -4.7499    4.7985    1.8548 C.3     1  LIG1        0.0000
     35 C35        -4.9974    4.2575    0.4634 C.3     1  LIG1        0.0000
     36 H           5.1614    4.8828    0.2779 H       1  LIG1        0.0000
     37 H           6.4319    5.0086    2.3057 H       1  LIG1        0.0000
     38 H           5.4772    4.2531    4.3612 H       1  LIG1        0.0000
     39 H           3.2580    3.3711    4.4050 H       1  LIG1        0.0000
     40 H           1.9814    3.2398    2.3809 H       1  LIG1        0.0000
     41 H           2.6037   -2.0032    0.0105 H       1  LIG1        0.0000
     42 H          -0.2550   -2.1941    1.8955 H       1  LIG1        0.0000
     43 H           1.0760   -3.8157   -1.7775 H       1  LIG1        0.0000
     44 H          -1.5518    2.2398   -2.0198 H       1  LIG1        0.0000
     45 H          -3.6193    3.4489   -1.9416 H       1  LIG1        0.0000
     46 H          -1.4061    2.2531    2.1307 H       1  LIG1        0.0000
     47 H          -3.3264    4.0646    3.1993 H       1  LIG1        0.0000
     48 H          -4.4857    2.9725    2.8390 H       1  LIG1        0.0000
     49 H          -4.2522    5.6653    1.8247 H       1  LIG1        0.0000
     50 H          -5.6073    4.9235    2.3541 H       1  LIG1        0.0000
     51 H          -5.7727    3.6259    0.4583 H       1  LIG1        0.0000
     52 H          -5.1685    5.0005   -0.1837 H       1  LIG1        0.0000
@<TRIPOS>BOND
     1     1     2    3
     2     2     3    1
     3     3     4    1
     4     4     5    2
     5     4     6    1
     6     6     7   ar
     7     7     8   ar
     8     8     9   ar
     9     9    10   ar
    10    10    11   ar
    11    11     6   ar
    12     3    12    2
    13    12    13    1
    14    13    14    1
    15    14    15    2
    16    15    16    1
    17    16    17    2
    18    17    18    1
    19    18    19    1
    20    19    20    1
    21    20    21   ar
    22    20    22   ar
    23    19    23    2
    24    23    16    1
    25    14    24    1
    26    24    25    2
    27    24    26   am
    28    26    12    1
    29    26    27    1
    30    27    28   ar
    31    28    29   ar
    32    29    30   ar
    33    30    31   ar
    34    31    32   ar
    35    32    27   ar
    36    31    33    1
    37    33    34    1
    38    34    35    1
    39    35    30    1
    40     7    36    1
    41     8    37    1
    42     9    38    1
    43    10    39    1
    44    11    40    1
    45    15    41    1
    46    17    42    1
    47    23    43    1
    48    28    44    1
    49    29    45    1
    50    32    46    1
    51    33    47    1
    52    33    48    1
    53    34    49    1
    54    34    50    1
    55    35    51    1
    56    35    52    1
