@<TRIPOS>MOLECULE
*****
 52 56 0 0 0
SMALL
USER_CHARGES

@<TRIPOS>ATOM
      1 N1          3.6387    4.3454   -0.0670 N.1     1  LIG1        0.0000
      2 C2          2.5798    3.9238   -0.0447 C.1     1  LIG1        0.0000
      3 C3          1.2886    3.4097   -0.0175 C.2     1  LIG1        0.0000
      4 C4          0.0956    4.3516   -0.0090 C.2     1  LIG1        0.0000
      5 O5         -0.2467    4.8770    1.0141 O.2     1  LIG1        0.0000
      6 C6         -0.6289    4.6153   -1.2374 C.3     1  LIG1        0.0000
      7 C7         -1.7195    5.4784   -1.2214 C.3     1  LIG1        0.0000
      8 C8         -2.4090    5.7250   -2.4039 C.3     1  LIG1        0.0000
      9 C9         -2.0057    5.1113   -3.5860 C.3     1  LIG1        0.0000
     10 C10        -0.9137    4.2497   -3.5928 C.3     1  LIG1        0.0000
     11 C11        -0.2189    3.9971   -2.4142 C.3     1  LIG1        0.0000
     12 C12         1.0980    2.1006    0.0010 C.2     1  LIG1        0.0000
     13 S13         2.3384    0.8871   -0.0077 S.3     1  LIG1        0.0000
     14 C14         1.2792   -0.4873    0.0192 C.2     1  LIG1        0.0000
     15 C15         1.6350   -1.7556    0.0248 C.2     1  LIG1        0.0000
     16 C16         0.6308   -2.7836    0.0515 C.2     1  LIG1        0.0000
     17 C17        -0.2623   -2.8288   -0.9744 C.2     1  LIG1        0.0000
     18 S18        -1.2574   -4.1553   -0.5858 S.3     1  LIG1        0.0000
     19 C19        -0.5024   -4.6052    0.8708 C.2     1  LIG1        0.0000
     20 N20        -0.8935   -5.6797    1.6820 N.pl3   1  LIG1        1.0000
     21 O21        -1.8355   -6.3682    1.3614 O.2     1  LIG1        0.0000
     22 O22        -0.2841   -5.9205    2.7111 O.2     1  LIG1       -1.0000
     23 C23         0.5331   -3.7460    1.0878 C.2     1  LIG1        0.0000
     24 C24        -0.0669    0.0386    0.0373 C.2     1  LIG1        0.0000
     25 O25        -1.0593   -0.6738    0.0579 O.2     1  LIG1        0.0000
     26 N26        -0.1229    1.4359    0.0288 N.am    1  LIG1        0.0000
     27 C27        -1.3259    2.1520    0.0500 C.3     1  LIG1        0.0000
     28 C28        -1.9562    2.4937   -1.1412 C.3     1  LIG1        0.0000
     29 C29        -3.1557    3.1929   -1.0934 C.3     1  LIG1        0.0000
     30 C30        -3.7100    3.5356    0.1297 C.3     1  LIG1        0.0000
     31 C31        -3.0738    3.1996    1.3083 C.3     1  LIG1        0.0000
     32 C32        -1.8706    2.5004    1.2804 C.3     1  LIG1        0.0000
     33 C33        -3.9087    3.7020    2.4717 C.3     1  LIG1        0.0000
     34 C34        -4.7499    4.7985    1.8548 C.3     1  LIG1        0.0000
     35 C35        -4.9974    4.2575    0.4634 C.3     1  LIG1        0.0000
     36 H          -2.0048    5.9169   -0.3691 H       1  LIG1        0.0000
     37 H          -3.1948    6.3435   -2.4047 H       1  LIG1        0.0000
     38 H          -2.5034    5.2906   -4.4346 H       1  LIG1        0.0000
     39 H          -0.6279    3.8117   -4.4451 H       1  LIG1        0.0000
     40 H           0.5665    3.3781   -2.4130 H       1  LIG1        0.0000
     41 H           2.6037   -2.0032    0.0105 H       1  LIG1        0.0000
     42 H          -0.3205   -2.2252   -1.7695 H       1  LIG1        0.0000
     43 H           1.1455   -3.7889    1.8771 H       1  LIG1        0.0000
     44 H          -1.5518    2.2398   -2.0198 H       1  LIG1        0.0000
     45 H          -3.6193    3.4489   -1.9416 H       1  LIG1        0.0000
     46 H          -1.4061    2.2531    2.1307 H       1  LIG1        0.0000
     47 H          -3.3264    4.0646    3.1993 H       1  LIG1        0.0000
     48 H          -4.4857    2.9725    2.8390 H       1  LIG1        0.0000
     49 H          -4.2522    5.6653    1.8247 H       1  LIG1        0.0000
     50 H          -5.6073    4.9235    2.3541 H       1  LIG1        0.0000
     51 H          -5.7727    3.6259    0.4583 H       1  LIG1        0.0000
     52 H          -5.1685    5.0005   -0.1837 H       1  LIG1        0.0000
@<TRIPOS>BOND
     1     1     2    3
     2     2     3    1
     3     3     4    1
     4     4     5    2
     5     4     6    1
     6     6     7   ar
     7     7     8   ar
     8     8     9   ar
     9     9    10   ar
    10    10    11   ar
    11    11     6   ar
    12     3    12    2
    13    12    13    1
    14    13    14    1
    15    14    15    2
    16    15    16    1
    17    16    17    2
    18    17    18    1
    19    18    19    1
    20    19    20    1
    21    20    21   ar
    22    20    22   ar
    23    19    23    2
    24    23    16    1
    25    14    24    1
    26    24    25    2
    27    24    26   am
    28    26    12    1
    29    26    27    1
    30    27    28   ar
    31    28    29   ar
    32    29    30   ar
    33    30    31   ar
    34    31    32   ar
    35    32    27   ar
    36    31    33    1
    37    33    34    1
    38    34    35    1
    39    35    30    1
    40     7    36    1
    41     8    37    1
    42     9    38    1
    43    10    39    1
    44    11    40    1
    45    15    41    1
    46    17    42    1
    47    23    43    1
    48    28    44    1
    49    29    45    1
    50    32    46    1
    51    33    47    1
    52    33    48    1
    53    34    49    1
    54    34    50    1
    55    35    51    1
    56    35    52    1
