@<TRIPOS>MOLECULE
*****
 52 56 0 0 0
SMALL
USER_CHARGES

@<TRIPOS>ATOM
      1 N1         -0.6971    4.9775   -0.0034 N.1     1  LIG1        0.0000
      2 C2          0.1977    4.2711   -0.0097 C.1     1  LIG1        0.0000
      3 C3          1.2886    3.4097   -0.0175 C.2     1  LIG1        0.0000
      4 C4          2.7005    3.9719   -0.0472 C.2     1  LIG1        0.0000
      5 O5          3.2079    4.3734    0.9634 O.2     1  LIG1        0.0000
      6 C6          3.4345    4.0229   -1.2970 C.3     1  LIG1        0.0000
      7 C7          4.7262    4.5387   -1.3160 C.3     1  LIG1        0.0000
      8 C8          5.4226    4.5845   -2.5191 C.3     1  LIG1        0.0000
      9 C9          4.8268    4.1172   -3.6867 C.3     1  LIG1        0.0000
     10 C10         3.5347    3.6027   -3.6583 C.3     1  LIG1        0.0000
     11 C11         2.8310    3.5538   -2.4592 C.3     1  LIG1        0.0000
     12 C12         1.0980    2.1006    0.0010 C.2     1  LIG1        0.0000
     13 S13         2.3384    0.8871   -0.0077 S.3     1  LIG1        0.0000
     14 C14         1.2792   -0.4873    0.0192 C.2     1  LIG1        0.0000
     15 C15         1.6350   -1.7556    0.0248 C.2     1  LIG1        0.0000
     16 C16         0.6308   -2.7836    0.0515 C.2     1  LIG1        0.0000
     17 C17        -0.2623   -2.8288   -0.9744 C.2     1  LIG1        0.0000
     18 S18        -1.2574   -4.1553   -0.5858 S.3     1  LIG1        0.0000
     19 C19        -0.5024   -4.6052    0.8708 C.2     1  LIG1        0.0000
     20 N20        -0.8935   -5.6797    1.6820 N.pl3   1  LIG1        1.0000
     21 O21        -1.8355   -6.3682    1.3614 O.2     1  LIG1        0.0000
     22 O22        -0.2841   -5.9205    2.7111 O.2     1  LIG1       -1.0000
     23 C23         0.5331   -3.7460    1.0878 C.2     1  LIG1        0.0000
     24 C24        -0.0669    0.0386    0.0373 C.2     1  LIG1        0.0000
     25 O25        -1.0593   -0.6738    0.0579 O.2     1  LIG1        0.0000
     26 N26        -0.1229    1.4359    0.0288 N.am    1  LIG1        0.0000
     27 C27        -1.3259    2.1520    0.0500 C.3     1  LIG1        0.0000
     28 C28        -1.8956    2.5245    1.2622 C.3     1  LIG1        0.0000
     29 C29        -3.0828    3.2460    1.2564 C.3     1  LIG1        0.0000
     30 C30        -3.6799    3.5885    0.0536 C.3     1  LIG1        0.0000
     31 C31        -3.1120    3.2079   -1.1462 C.3     1  LIG1        0.0000
     32 C32        -1.9236    2.4835   -1.1603 C.3     1  LIG1        0.0000
     33 C33        -3.9815    3.7200   -2.2796 C.3     1  LIG1        0.0000
     34 C34        -5.3299    3.9268   -1.6242 C.3     1  LIG1        0.0000
     35 C35        -4.9363    4.3808   -0.2354 C.3     1  LIG1        0.0000
     36 H           5.1495    4.8730   -0.4739 H       1  LIG1        0.0000
     37 H           6.3517    4.9534   -2.5451 H       1  LIG1        0.0000
     38 H           5.3300    4.1514   -4.5502 H       1  LIG1        0.0000
     39 H           3.1116    3.2678   -4.5002 H       1  LIG1        0.0000
     40 H           1.9016    3.1857   -2.4331 H       1  LIG1        0.0000
     41 H           2.6037   -2.0032    0.0105 H       1  LIG1        0.0000
     42 H          -0.3205   -2.2252   -1.7695 H       1  LIG1        0.0000
     43 H           1.1455   -3.7889    1.8771 H       1  LIG1        0.0000
     44 H          -1.4570    2.2767    2.1261 H       1  LIG1        0.0000
     45 H          -3.5067    3.5182    2.1203 H       1  LIG1        0.0000
     46 H          -1.5070    2.2063   -2.0261 H       1  LIG1        0.0000
     47 H          -4.0417    3.0465   -3.0164 H       1  LIG1        0.0000
     48 H          -3.6249    4.5806   -2.6430 H       1  LIG1        0.0000
     49 H          -5.8538    3.0756   -1.5936 H       1  LIG1        0.0000
     50 H          -5.8613    4.6283   -2.0991 H       1  LIG1        0.0000
     51 H          -4.7505    5.3633   -0.2199 H       1  LIG1        0.0000
     52 H          -5.6540    4.1668    0.4273 H       1  LIG1        0.0000
@<TRIPOS>BOND
     1     1     2    3
     2     2     3    1
     3     3     4    1
     4     4     5    2
     5     4     6    1
     6     6     7   ar
     7     7     8   ar
     8     8     9   ar
     9     9    10   ar
    10    10    11   ar
    11    11     6   ar
    12     3    12    2
    13    12    13    1
    14    13    14    1
    15    14    15    2
    16    15    16    1
    17    16    17    2
    18    17    18    1
    19    18    19    1
    20    19    20    1
    21    20    21   ar
    22    20    22   ar
    23    19    23    2
    24    23    16    1
    25    14    24    1
    26    24    25    2
    27    24    26   am
    28    26    12    1
    29    26    27    1
    30    27    28   ar
    31    28    29   ar
    32    29    30   ar
    33    30    31   ar
    34    31    32   ar
    35    32    27   ar
    36    31    33    1
    37    33    34    1
    38    34    35    1
    39    35    30    1
    40     7    36    1
    41     8    37    1
    42     9    38    1
    43    10    39    1
    44    11    40    1
    45    15    41    1
    46    17    42    1
    47    23    43    1
    48    28    44    1
    49    29    45    1
    50    32    46    1
    51    33    47    1
    52    33    48    1
    53    34    49    1
    54    34    50    1
    55    35    51    1
    56    35    52    1
