@<TRIPOS>MOLECULE

  24   25
SMALL
USER_CHARGES
@<TRIPOS>ATOM
   1 N1           3.5829     2.1362    -0.0244 N.pl3        1    LIG   0.0000
   2 C2           2.3719     1.4346    -0.0164 C.2          1    LIG   0.0000
   3 C3           1.1612     2.0783     0.0005 C.2          1    LIG   0.0000
   4 N4          -0.0178     1.3772     0.0083 N.pl3        1    LIG   0.0000
   5 C5          -1.2384     2.0614     0.0249 C.ar         1    LIG   0.0000
   6 C6          -2.2049     1.7108     0.9606 C.ar         1    LIG   0.0000
   7 C7          -3.4111     2.4024     0.9617 C.ar         1    LIG   0.0000
   8 Cl8         -4.6662     1.9735     2.1479 Cl           1    LIG   0.0000
   9 C9          -3.6455     3.4229     0.0479 C.ar         1    LIG   0.0000
  10 Cl10        -5.1966     4.2955     0.0676 Cl           1    LIG   0.0000
  11 C11         -2.6789     3.7728    -0.8882 C.ar         1    LIG   0.0000
  12 C12         -1.4727     3.0815    -0.8901 C.ar         1    LIG   0.0000
  13 Cl13        -0.2189     3.5099    -2.0786 Cl           1    LIG   0.0000
  14 C14         -0.0024     0.0056     0.0010 C.2          1    LIG   0.0000
  15 C15          1.1753    -0.6969    -0.0150 C.2          1    LIG   0.0000
  16 C16          2.4062     0.0142    -0.0245 C.2          1    LIG   0.0000
  17 O17          3.4714    -0.5823    -0.0389 O.2          1    LIG   0.0000
  18 H            3.5815     3.1362    -0.0190 H            1    LIG   0.0000
  19 H            4.4496     1.6376    -0.0357 H            1    LIG   0.0000
  20 H            1.1374     3.0780     0.0073 H            1    LIG   0.0000
  21 H           -2.0363     0.9771     1.6187 H            1    LIG   0.0000
  22 H           -2.8478     4.5065    -1.5464 H            1    LIG   0.0000
  23 H           -0.8691    -0.4932     0.0075 H            1    LIG   0.0000
  24 H            1.1683    -1.6969    -0.0199 H            1    LIG   0.0000
@<TRIPOS>BOND
   1        1        2 1
   2        2        3 2
   3        3        4 1
   4        4        5 1
   5        5        6 ar
   6        6        7 ar
   7        7        8 1
   8        7        9 ar
   9        9       10 1
  10        9       11 ar
  11       11       12 ar
  12       12        5 ar
  13       12       13 1
  14        4       14 1
  15       14       15 2
  16       15       16 1
  17       16        2 1
  18       16       17 2
  19        1       18 1
  20        1       19 1
  21        3       20 1
  22        6       21 1
  23       11       22 1
  24       14       23 1
  25       15       24 1

@<TRIPOS>MOLECULE

  24   25
SMALL
USER_CHARGES
@<TRIPOS>ATOM
   1 N1           3.5829     2.1362    -0.0244 N.pl3        1    LIG   0.0000
   2 C2           2.3719     1.4346    -0.0164 C.2          1    LIG   0.0000
   3 C3           1.1612     2.0783     0.0005 C.2          1    LIG   0.0000
   4 N4          -0.0178     1.3772     0.0083 N.pl3        1    LIG   0.0000
   5 C5          -1.2384     2.0614     0.0249 C.ar         1    LIG   0.0000
   6 C6          -2.0246     2.0273     1.1709 C.ar         1    LIG   0.0000
   7 C7          -3.2338     2.7136     1.1683 C.ar         1    LIG   0.0000
   8 Cl8         -4.2604     2.6859     2.6215 Cl           1    LIG   0.0000
   9 C9          -3.6475     3.4195     0.0449 C.ar         1    LIG   0.0000
  10 Cl10        -5.1989     4.2915     0.0638 Cl           1    LIG   0.0000
  11 C11         -2.8612     3.4528    -1.1012 C.ar         1    LIG   0.0000
  12 C12         -1.6521     2.7665    -1.0995 C.ar         1    LIG   0.0000
  13 Cl13        -0.6272     2.7931    -2.5544 Cl           1    LIG   0.0000
  14 C14         -0.0024     0.0056     0.0010 C.2          1    LIG   0.0000
  15 C15          1.1753    -0.6969    -0.0150 C.2          1    LIG   0.0000
  16 C16          2.4062     0.0142    -0.0245 C.2          1    LIG   0.0000
  17 O17          3.4714    -0.5823    -0.0389 O.2          1    LIG   0.0000
  18 H            3.5815     3.1362    -0.0190 H            1    LIG   0.0000
  19 H            4.4496     1.6376    -0.0357 H            1    LIG   0.0000
  20 H            1.1374     3.0780     0.0073 H            1    LIG   0.0000
  21 H           -1.7269     1.5201     1.9797 H            1    LIG   0.0000
  22 H           -3.1591     3.9599    -1.9100 H            1    LIG   0.0000
  23 H           -0.8691    -0.4932     0.0075 H            1    LIG   0.0000
  24 H            1.1683    -1.6969    -0.0199 H            1    LIG   0.0000
@<TRIPOS>BOND
   1        1        2 1
   2        2        3 2
   3        3        4 1
   4        4        5 1
   5        5        6 ar
   6        6        7 ar
   7        7        8 1
   8        7        9 ar
   9        9       10 1
  10        9       11 ar
  11       11       12 ar
  12       12        5 ar
  13       12       13 1
  14        4       14 1
  15       14       15 2
  16       15       16 1
  17       16        2 1
  18       16       17 2
  19        1       18 1
  20        1       19 1
  21        3       20 1
  22        6       21 1
  23       11       22 1
  24       14       23 1
  25       15       24 1

@<TRIPOS>MOLECULE

  24   25
SMALL
USER_CHARGES
@<TRIPOS>ATOM
   1 N1           3.5829     2.1362    -0.0244 N.pl3        1    LIG   0.0000
   2 C2           2.3719     1.4346    -0.0164 C.2          1    LIG   0.0000
   3 C3           1.1612     2.0783     0.0005 C.2          1    LIG   0.0000
   4 N4          -0.0178     1.3772     0.0083 N.pl3        1    LIG   0.0000
   5 C5          -1.2384     2.0614     0.0249 C.ar         1    LIG   0.0000
   6 C6          -1.9244     2.2049     1.2255 C.ar         1    LIG   0.0000
   7 C7          -3.1353     2.8882     1.2220 C.ar         1    LIG   0.0000
   8 Cl8         -4.0347     3.0856     2.7446 Cl           1    LIG   0.0000
   9 C9          -3.6487     3.4175     0.0439 C.ar         1    LIG   0.0000
  10 Cl10        -5.2002     4.2891     0.0625 Cl           1    LIG   0.0000
  11 C11         -2.9627     3.2732    -1.1567 C.ar         1    LIG   0.0000
  12 C12         -1.7520     2.5898    -1.1540 C.ar         1    LIG   0.0000
  13 Cl13        -0.8543     2.3910    -2.6780 Cl           1    LIG   0.0000
  14 C14         -0.0024     0.0056     0.0010 C.2          1    LIG   0.0000
  15 C15          1.1753    -0.6969    -0.0150 C.2          1    LIG   0.0000
  16 C16          2.4062     0.0142    -0.0245 C.2          1    LIG   0.0000
  17 O17          3.4714    -0.5823    -0.0389 O.2          1    LIG   0.0000
  18 H            3.5815     3.1362    -0.0190 H            1    LIG   0.0000
  19 H            4.4496     1.6376    -0.0357 H            1    LIG   0.0000
  20 H            1.1374     3.0780     0.0073 H            1    LIG   0.0000
  21 H           -1.5549     1.8248     2.0735 H            1    LIG   0.0000
  22 H           -3.3324     3.6532    -2.0046 H            1    LIG   0.0000
  23 H           -0.8691    -0.4932     0.0075 H            1    LIG   0.0000
  24 H            1.1683    -1.6969    -0.0199 H            1    LIG   0.0000
@<TRIPOS>BOND
   1        1        2 1
   2        2        3 2
   3        3        4 1
   4        4        5 1
   5        5        6 ar
   6        6        7 ar
   7        7        8 1
   8        7        9 ar
   9        9       10 1
  10        9       11 ar
  11       11       12 ar
  12       12        5 ar
  13       12       13 1
  14        4       14 1
  15       14       15 2
  16       15       16 1
  17       16        2 1
  18       16       17 2
  19        1       18 1
  20        1       19 1
  21        3       20 1
  22        6       21 1
  23       11       22 1
  24       14       23 1
  25       15       24 1

@<TRIPOS>MOLECULE

  24   25
SMALL
USER_CHARGES
@<TRIPOS>ATOM
   1 N1           3.5829     2.1362    -0.0244 N.pl3        1    LIG   0.0000
   2 C2           2.3719     1.4346    -0.0164 C.2          1    LIG   0.0000
   3 C3           1.1612     2.0783     0.0005 C.2          1    LIG   0.0000
   4 N4          -0.0178     1.3772     0.0083 N.pl3        1    LIG   0.0000
   5 C5          -1.2384     2.0614     0.0249 C.ar         1    LIG   0.0000
   6 C6          -2.2241     1.7217    -0.8947 C.ar         1    LIG   0.0000
   7 C7          -3.4302     2.4125    -0.8623 C.ar         1    LIG   0.0000
   8 Cl8         -4.7089     1.9987    -2.0285 Cl           1    LIG   0.0000
   9 C9          -3.6466     3.4205     0.0697 C.ar         1    LIG   0.0000
  10 Cl10        -5.1985     4.2915     0.0937 Cl           1    LIG   0.0000
  11 C11         -2.6604     3.7605     0.9888 C.ar         1    LIG   0.0000
  12 C12         -1.4539     3.0703     0.9568 C.ar         1    LIG   0.0000
  13 Cl13        -0.1748     3.4866     2.1224 Cl           1    LIG   0.0000
  14 C14         -0.0024     0.0056     0.0010 C.2          1    LIG   0.0000
  15 C15          1.1753    -0.6969    -0.0150 C.2          1    LIG   0.0000
  16 C16          2.4062     0.0142    -0.0245 C.2          1    LIG   0.0000
  17 O17          3.4714    -0.5823    -0.0389 O.2          1    LIG   0.0000
  18 H            3.5815     3.1362    -0.0190 H            1    LIG   0.0000
  19 H            4.4496     1.6376    -0.0357 H            1    LIG   0.0000
  20 H            1.1374     3.0780     0.0073 H            1    LIG   0.0000
  21 H           -2.0690     0.9959    -1.5650 H            1    LIG   0.0000
  22 H           -2.8155     4.4863     1.6589 H            1    LIG   0.0000
  23 H           -0.8691    -0.4932     0.0075 H            1    LIG   0.0000
  24 H            1.1683    -1.6969    -0.0199 H            1    LIG   0.0000
@<TRIPOS>BOND
   1        1        2 1
   2        2        3 2
   3        3        4 1
   4        4        5 1
   5        5        6 ar
   6        6        7 ar
   7        7        8 1
   8        7        9 ar
   9        9       10 1
  10        9       11 ar
  11       11       12 ar
  12       12        5 ar
  13       12       13 1
  14        4       14 1
  15       14       15 2
  16       15       16 1
  17       16        2 1
  18       16       17 2
  19        1       18 1
  20        1       19 1
  21        3       20 1
  22        6       21 1
  23       11       22 1
  24       14       23 1
  25       15       24 1

@<TRIPOS>MOLECULE

  24   25
SMALL
USER_CHARGES
@<TRIPOS>ATOM
   1 N1           3.5829     2.1362    -0.0244 N.pl3        1    LIG   0.0000
   2 C2           2.3719     1.4346    -0.0164 C.2          1    LIG   0.0000
   3 C3           1.1612     2.0783     0.0005 C.2          1    LIG   0.0000
   4 N4          -0.0178     1.3772     0.0083 N.pl3        1    LIG   0.0000
   5 C5          -1.2384     2.0614     0.0249 C.ar         1    LIG   0.0000
   6 C6          -2.0482     2.0406    -1.1049 C.ar         1    LIG   0.0000
   7 C7          -3.2573     2.7261    -1.0692 C.ar         1    LIG   0.0000
   8 Cl8         -4.3127     2.7168    -2.5017 Cl           1    LIG   0.0000
   9 C9          -3.6488     3.4165     0.0717 C.ar         1    LIG   0.0000
  10 Cl10        -5.2012     4.2866     0.0958 Cl           1    LIG   0.0000
  11 C11         -2.8385     3.4376     1.2012 C.ar         1    LIG   0.0000
  12 C12         -1.6291     2.7527     1.1660 C.ar         1    LIG   0.0000
  13 Cl13        -0.5731     2.7646     2.5988 Cl           1    LIG   0.0000
  14 C14         -0.0024     0.0056     0.0010 C.2          1    LIG   0.0000
  15 C15          1.1753    -0.6969    -0.0150 C.2          1    LIG   0.0000
  16 C16          2.4062     0.0142    -0.0245 C.2          1    LIG   0.0000
  17 O17          3.4714    -0.5823    -0.0389 O.2          1    LIG   0.0000
  18 H            3.5815     3.1362    -0.0190 H            1    LIG   0.0000
  19 H            4.4496     1.6376    -0.0357 H            1    LIG   0.0000
  20 H            1.1374     3.0780     0.0073 H            1    LIG   0.0000
  21 H           -1.7670     1.5433    -1.9257 H            1    LIG   0.0000
  22 H           -3.1196     3.9351     2.0218 H            1    LIG   0.0000
  23 H           -0.8691    -0.4932     0.0075 H            1    LIG   0.0000
  24 H            1.1683    -1.6969    -0.0199 H            1    LIG   0.0000
@<TRIPOS>BOND
   1        1        2 1
   2        2        3 2
   3        3        4 1
   4        4        5 1
   5        5        6 ar
   6        6        7 ar
   7        7        8 1
   8        7        9 ar
   9        9       10 1
  10        9       11 ar
  11       11       12 ar
  12       12        5 ar
  13       12       13 1
  14        4       14 1
  15       14       15 2
  16       15       16 1
  17       16        2 1
  18       16       17 2
  19        1       18 1
  20        1       19 1
  21        3       20 1
  22        6       21 1
  23       11       22 1
  24       14       23 1
  25       15       24 1

@<TRIPOS>MOLECULE

  24   25
SMALL
USER_CHARGES
@<TRIPOS>ATOM
   1 N1           3.5829     2.1362    -0.0244 N.pl3        1    LIG   0.0000
   2 C2           2.3719     1.4346    -0.0164 C.2          1    LIG   0.0000
   3 C3           1.1612     2.0783     0.0005 C.2          1    LIG   0.0000
   4 N4          -0.0178     1.3772     0.0083 N.pl3        1    LIG   0.0000
   5 C5          -1.2384     2.0614     0.0249 C.ar         1    LIG   0.0000
   6 C6          -1.9490     2.2188    -1.1596 C.ar         1    LIG   0.0000
   7 C7          -3.1598     2.9012    -1.1229 C.ar         1    LIG   0.0000
   8 Cl8         -4.0895     3.1179    -2.6245 Cl           1    LIG   0.0000
   9 C9          -3.6500     3.4143     0.0720 C.ar         1    LIG   0.0000
  10 Cl10        -5.2027     4.2840     0.0961 Cl           1    LIG   0.0000
  11 C11         -2.9388     3.2573     1.2563 C.ar         1    LIG   0.0000
  12 C12         -1.7278     2.5754     1.2203 C.ar         1    LIG   0.0000
  13 Cl13        -0.7976     2.3612     2.7226 Cl           1    LIG   0.0000
  14 C14         -0.0024     0.0056     0.0010 C.2          1    LIG   0.0000
  15 C15          1.1753    -0.6969    -0.0150 C.2          1    LIG   0.0000
  16 C16          2.4062     0.0142    -0.0245 C.2          1    LIG   0.0000
  17 O17          3.4714    -0.5823    -0.0389 O.2          1    LIG   0.0000
  18 H            3.5815     3.1362    -0.0190 H            1    LIG   0.0000
  19 H            4.4496     1.6376    -0.0357 H            1    LIG   0.0000
  20 H            1.1374     3.0780     0.0073 H            1    LIG   0.0000
  21 H           -1.5969     1.8491    -2.0194 H            1    LIG   0.0000
  22 H           -3.2909     3.6272     2.1160 H            1    LIG   0.0000
  23 H           -0.8691    -0.4932     0.0075 H            1    LIG   0.0000
  24 H            1.1683    -1.6969    -0.0199 H            1    LIG   0.0000
@<TRIPOS>BOND
   1        1        2 1
   2        2        3 2
   3        3        4 1
   4        4        5 1
   5        5        6 ar
   6        6        7 ar
   7        7        8 1
   8        7        9 ar
   9        9       10 1
  10        9       11 ar
  11       11       12 ar
  12       12        5 ar
  13       12       13 1
  14        4       14 1
  15       14       15 2
  16       15       16 1
  17       16        2 1
  18       16       17 2
  19        1       18 1
  20        1       19 1
  21        3       20 1
  22        6       21 1
  23       11       22 1
  24       14       23 1
  25       15       24 1

@<TRIPOS>MOLECULE

  24   25
SMALL
USER_CHARGES
@<TRIPOS>ATOM
   1 N1           3.5829     2.1362    -0.0244 N.pl3        1    LIG   0.0000
   2 C2           2.3719     1.4346    -0.0164 C.2          1    LIG   0.0000
   3 C3           1.1612     2.0783     0.0005 C.2          1    LIG   0.0000
   4 N4          -0.0178     1.3772     0.0083 N.pl3        1    LIG   0.0000
   5 C5          -1.2384     2.0614     0.0249 C.ar         1    LIG   0.0000
   6 C6          -1.5269     2.9173     1.0817 C.ar         1    LIG   0.0000
   7 C7          -2.7445     3.5886     1.0804 C.ar         1    LIG   0.0000
   8 Cl8         -3.1399     4.6894     2.4212 Cl           1    LIG   0.0000
   9 C9          -3.6535     3.4089     0.0444 C.ar         1    LIG   0.0000
  10 Cl10        -5.2060     4.2788     0.0626 Cl           1    LIG   0.0000
  11 C11         -3.3648     2.5524    -1.0119 C.ar         1    LIG   0.0000
  12 C12         -2.1476     1.8805    -1.0110 C.ar         1    LIG   0.0000
  13 Cl13        -1.7541     0.7779    -2.3517 Cl           1    LIG   0.0000
  14 C14         -0.0024     0.0056     0.0010 C.2          1    LIG   0.0000
  15 C15          1.1753    -0.6969    -0.0150 C.2          1    LIG   0.0000
  16 C16          2.4062     0.0142    -0.0245 C.2          1    LIG   0.0000
  17 O17          3.4714    -0.5823    -0.0389 O.2          1    LIG   0.0000
  18 H            3.5815     3.1362    -0.0190 H            1    LIG   0.0000
  19 H            4.4496     1.6376    -0.0357 H            1    LIG   0.0000
  20 H            1.1374     3.0780     0.0073 H            1    LIG   0.0000
  21 H           -0.8728     3.0474     1.8268 H            1    LIG   0.0000
  22 H           -4.0191     2.4222    -1.7569 H            1    LIG   0.0000
  23 H           -0.8691    -0.4932     0.0075 H            1    LIG   0.0000
  24 H            1.1683    -1.6969    -0.0199 H            1    LIG   0.0000
@<TRIPOS>BOND
   1        1        2 1
   2        2        3 2
   3        3        4 1
   4        4        5 1
   5        5        6 ar
   6        6        7 ar
   7        7        8 1
   8        7        9 ar
   9        9       10 1
  10        9       11 ar
  11       11       12 ar
  12       12        5 ar
  13       12       13 1
  14        4       14 1
  15       14       15 2
  16       15       16 1
  17       16        2 1
  18       16       17 2
  19        1       18 1
  20        1       19 1
  21        3       20 1
  22        6       21 1
  23       11       22 1
  24       14       23 1
  25       15       24 1

@<TRIPOS>MOLECULE

  24   25
SMALL
USER_CHARGES
@<TRIPOS>ATOM
   1 N1           3.5829     2.1362    -0.0244 N.pl3        1    LIG   0.0000
   2 C2           2.3719     1.4346    -0.0164 C.2          1    LIG   0.0000
   3 C3           1.1612     2.0783     0.0005 C.2          1    LIG   0.0000
   4 N4          -0.0178     1.3772     0.0083 N.pl3        1    LIG   0.0000
   5 C5          -1.2384     2.0614     0.0249 C.ar         1    LIG   0.0000
   6 C6          -1.3722     3.1999     0.8114 C.ar         1    LIG   0.0000
   7 C7          -2.5924     3.8664     0.8145 C.ar         1    LIG   0.0000
   8 Cl8         -2.7915     5.3257     1.8129 Cl           1    LIG   0.0000
   9 C9          -3.6555     3.4052     0.0472 C.ar         1    LIG   0.0000
  10 Cl10        -5.2085     4.2743     0.0656 Cl           1    LIG   0.0000
  11 C11         -3.5215     2.2662    -0.7388 C.ar         1    LIG   0.0000
  12 C12         -2.3017     1.5991    -0.7420 C.ar         1    LIG   0.0000
  13 Cl13        -2.1045     0.1382    -1.7394 Cl           1    LIG   0.0000
  14 C14         -0.0024     0.0056     0.0010 C.2          1    LIG   0.0000
  15 C15          1.1753    -0.6969    -0.0150 C.2          1    LIG   0.0000
  16 C16          2.4062     0.0142    -0.0245 C.2          1    LIG   0.0000
  17 O17          3.4714    -0.5823    -0.0389 O.2          1    LIG   0.0000
  18 H            3.5815     3.1362    -0.0190 H            1    LIG   0.0000
  19 H            4.4496     1.6376    -0.0357 H            1    LIG   0.0000
  20 H            1.1374     3.0780     0.0073 H            1    LIG   0.0000
  21 H           -0.6072     3.5324     1.3630 H            1    LIG   0.0000
  22 H           -4.2866     1.9337    -1.2902 H            1    LIG   0.0000
  23 H           -0.8691    -0.4932     0.0075 H            1    LIG   0.0000
  24 H            1.1683    -1.6969    -0.0199 H            1    LIG   0.0000
@<TRIPOS>BOND
   1        1        2 1
   2        2        3 2
   3        3        4 1
   4        4        5 1
   5        5        6 ar
   6        6        7 ar
   7        7        8 1
   8        7        9 ar
   9        9       10 1
  10        9       11 ar
  11       11       12 ar
  12       12        5 ar
  13       12       13 1
  14        4       14 1
  15       14       15 2
  16       15       16 1
  17       16        2 1
  18       16       17 2
  19        1       18 1
  20        1       19 1
  21        3       20 1
  22        6       21 1
  23       11       22 1
  24       14       23 1
  25       15       24 1

@<TRIPOS>MOLECULE

  24   25
SMALL
USER_CHARGES
@<TRIPOS>ATOM
   1 N1           3.5829     2.1362    -0.0244 N.pl3        1    LIG   0.0000
   2 C2           2.3719     1.4346    -0.0164 C.2          1    LIG   0.0000
   3 C3           1.1612     2.0783     0.0005 C.2          1    LIG   0.0000
   4 N4          -0.0178     1.3772     0.0083 N.pl3        1    LIG   0.0000
   5 C5          -1.2384     2.0614     0.0249 C.ar         1    LIG   0.0000
   6 C6          -1.7187     2.5718     1.2255 C.ar         1    LIG   0.0000
   7 C7          -2.9331     3.2489     1.2219 C.ar         1    LIG   0.0000
   8 Cl8         -3.5717     3.9114     2.7448 Cl           1    LIG   0.0000
   9 C9          -3.6511     3.4131     0.0433 C.ar         1    LIG   0.0000
  10 Cl10        -5.2031     4.2840     0.0615 Cl           1    LIG   0.0000
  11 C11         -3.1707     2.9021    -1.1571 C.ar         1    LIG   0.0000
  12 C12         -1.9567     2.2246    -1.1541 C.ar         1    LIG   0.0000
  13 Cl13        -1.3200     1.5603    -2.6777 Cl           1    LIG   0.0000
  14 C14         -0.0024     0.0056     0.0010 C.2          1    LIG   0.0000
  15 C15          1.1753    -0.6969    -0.0150 C.2          1    LIG   0.0000
  16 C16          2.4062     0.0142    -0.0245 C.2          1    LIG   0.0000
  17 O17          3.4714    -0.5823    -0.0389 O.2          1    LIG   0.0000
  18 H            3.5815     3.1362    -0.0190 H            1    LIG   0.0000
  19 H            4.4496     1.6376    -0.0357 H            1    LIG   0.0000
  20 H            1.1374     3.0780     0.0073 H            1    LIG   0.0000
  21 H           -1.2019     2.4544     2.0736 H            1    LIG   0.0000
  22 H           -3.6877     3.0194    -2.0050 H            1    LIG   0.0000
  23 H           -0.8691    -0.4932     0.0075 H            1    LIG   0.0000
  24 H            1.1683    -1.6969    -0.0199 H            1    LIG   0.0000
@<TRIPOS>BOND
   1        1        2 1
   2        2        3 2
   3        3        4 1
   4        4        5 1
   5        5        6 ar
   6        6        7 ar
   7        7        8 1
   8        7        9 ar
   9        9       10 1
  10        9       11 ar
  11       11       12 ar
  12       12        5 ar
  13       12       13 1
  14        4       14 1
  15       14       15 2
  16       15       16 1
  17       16        2 1
  18       16       17 2
  19        1       18 1
  20        1       19 1
  21        3       20 1
  22        6       21 1
  23       11       22 1
  24       14       23 1
  25       15       24 1

@<TRIPOS>MOLECULE

  24   25
SMALL
USER_CHARGES
@<TRIPOS>ATOM
   1 N1           3.5829     2.1362    -0.0244 N.pl3        1    LIG   0.0000
   2 C2           2.3719     1.4346    -0.0164 C.2          1    LIG   0.0000
   3 C3           1.1612     2.0783     0.0005 C.2          1    LIG   0.0000
   4 N4          -0.0178     1.3772     0.0083 N.pl3        1    LIG   0.0000
   5 C5          -1.2384     2.0614     0.0249 C.ar         1    LIG   0.0000
   6 C6          -1.8213     2.3882     1.2439 C.ar         1    LIG   0.0000
   7 C7          -3.0340     3.0684     1.2400 C.ar         1    LIG   0.0000
   8 Cl8         -3.8028     3.4982     2.7861 Cl           1    LIG   0.0000
   9 C9          -3.6499     3.4153     0.0434 C.ar         1    LIG   0.0000
  10 Cl10        -5.2017     4.2866     0.0617 Cl           1    LIG   0.0000
  11 C11         -3.0669     3.0878    -1.1755 C.ar         1    LIG   0.0000
  12 C12         -1.8545     2.4073    -1.1723 C.ar         1    LIG   0.0000
  13 Cl13        -1.0875     1.9759    -2.7195 Cl           1    LIG   0.0000
  14 C14         -0.0024     0.0056     0.0010 C.2          1    LIG   0.0000
  15 C15          1.1753    -0.6969    -0.0150 C.2          1    LIG   0.0000
  16 C16          2.4062     0.0142    -0.0245 C.2          1    LIG   0.0000
  17 O17          3.4714    -0.5823    -0.0389 O.2          1    LIG   0.0000
  18 H            3.5815     3.1362    -0.0190 H            1    LIG   0.0000
  19 H            4.4496     1.6376    -0.0357 H            1    LIG   0.0000
  20 H            1.1374     3.0780     0.0073 H            1    LIG   0.0000
  21 H           -1.3781     2.1394     2.1051 H            1    LIG   0.0000
  22 H           -3.5103     3.3365    -2.0366 H            1    LIG   0.0000
  23 H           -0.8691    -0.4932     0.0075 H            1    LIG   0.0000
  24 H            1.1683    -1.6969    -0.0199 H            1    LIG   0.0000
@<TRIPOS>BOND
   1        1        2 1
   2        2        3 2
   3        3        4 1
   4        4        5 1
   5        5        6 ar
   6        6        7 ar
   7        7        8 1
   8        7        9 ar
   9        9       10 1
  10        9       11 ar
  11       11       12 ar
  12       12        5 ar
  13       12       13 1
  14        4       14 1
  15       14       15 2
  16       15       16 1
  17       16        2 1
  18       16       17 2
  19        1       18 1
  20        1       19 1
  21        3       20 1
  22        6       21 1
  23       11       22 1
  24       14       23 1
  25       15       24 1

@<TRIPOS>MOLECULE

  24   25
SMALL
USER_CHARGES
@<TRIPOS>ATOM
   1 N1           3.5829     2.1362    -0.0244 N.pl3        1    LIG   0.0000
   2 C2           2.3719     1.4346    -0.0164 C.2          1    LIG   0.0000
   3 C3           1.1612     2.0783     0.0005 C.2          1    LIG   0.0000
   4 N4          -0.0178     1.3772     0.0083 N.pl3        1    LIG   0.0000
   5 C5          -1.2384     2.0614     0.0249 C.ar         1    LIG   0.0000
   6 C6          -1.5486     2.9296    -1.0157 C.ar         1    LIG   0.0000
   7 C7          -2.7661     3.6001    -0.9817 C.ar         1    LIG   0.0000
   8 Cl8         -3.1882     4.7179    -2.3003 Cl           1    LIG   0.0000
   9 C9          -3.6547     3.4061     0.0692 C.ar         1    LIG   0.0000
  10 Cl10        -5.2082     4.2743     0.0921 Cl           1    LIG   0.0000
  11 C11         -3.3438     2.5384     1.1100 C.ar         1    LIG   0.0000
  12 C12         -2.1263     1.8678     1.0768 C.ar         1    LIG   0.0000
  13 Cl13        -1.7043     0.7517     2.3975 Cl           1    LIG   0.0000
  14 C14         -0.0024     0.0056     0.0010 C.2          1    LIG   0.0000
  15 C15          1.1753    -0.6969    -0.0150 C.2          1    LIG   0.0000
  16 C16          2.4062     0.0142    -0.0245 C.2          1    LIG   0.0000
  17 O17          3.4714    -0.5823    -0.0389 O.2          1    LIG   0.0000
  18 H            3.5815     3.1362    -0.0190 H            1    LIG   0.0000
  19 H            4.4496     1.6376    -0.0357 H            1    LIG   0.0000
  20 H            1.1374     3.0780     0.0073 H            1    LIG   0.0000
  21 H           -0.9098     3.0688    -1.7724 H            1    LIG   0.0000
  22 H           -3.9826     2.3994     1.8667 H            1    LIG   0.0000
  23 H           -0.8691    -0.4932     0.0075 H            1    LIG   0.0000
  24 H            1.1683    -1.6969    -0.0199 H            1    LIG   0.0000
@<TRIPOS>BOND
   1        1        2 1
   2        2        3 2
   3        3        4 1
   4        4        5 1
   5        5        6 ar
   6        6        7 ar
   7        7        8 1
   8        7        9 ar
   9        9       10 1
  10        9       11 ar
  11       11       12 ar
  12       12        5 ar
  13       12       13 1
  14        4       14 1
  15       14       15 2
  16       15       16 1
  17       16        2 1
  18       16       17 2
  19        1       18 1
  20        1       19 1
  21        3       20 1
  22        6       21 1
  23       11       22 1
  24       14       23 1
  25       15       24 1

@<TRIPOS>MOLECULE

  24   25
SMALL
USER_CHARGES
@<TRIPOS>ATOM
   1 N1           3.5829     2.1362    -0.0244 N.pl3        1    LIG   0.0000
   2 C2           2.3719     1.4346    -0.0164 C.2          1    LIG   0.0000
   3 C3           1.1612     2.0783     0.0005 C.2          1    LIG   0.0000
   4 N4          -0.0178     1.3772     0.0083 N.pl3        1    LIG   0.0000
   5 C5          -1.2384     2.0614     0.0249 C.ar         1    LIG   0.0000
   6 C6          -1.7433     2.5856    -1.1596 C.ar         1    LIG   0.0000
   7 C7          -2.9576     3.2619    -1.1230 C.ar         1    LIG   0.0000
   8 Cl8         -3.6266     3.9438    -2.6243 Cl           1    LIG   0.0000
   9 C9          -3.6525     3.4100     0.0714 C.ar         1    LIG   0.0000
  10 Cl10        -5.2056     4.2788     0.0951 Cl           1    LIG   0.0000
  11 C11         -3.1469     2.8862     1.2559 C.ar         1    LIG   0.0000
  12 C12         -1.9325     2.2102     1.2202 C.ar         1    LIG   0.0000
  13 Cl13        -1.2633     1.5305     2.7229 Cl           1    LIG   0.0000
  14 C14         -0.0024     0.0056     0.0010 C.2          1    LIG   0.0000
  15 C15          1.1753    -0.6969    -0.0150 C.2          1    LIG   0.0000
  16 C16          2.4062     0.0142    -0.0245 C.2          1    LIG   0.0000
  17 O17          3.4714    -0.5823    -0.0389 O.2          1    LIG   0.0000
  18 H            3.5815     3.1362    -0.0190 H            1    LIG   0.0000
  19 H            4.4496     1.6376    -0.0357 H            1    LIG   0.0000
  20 H            1.1374     3.0780     0.0073 H            1    LIG   0.0000
  21 H           -1.2440     2.4786    -2.0193 H            1    LIG   0.0000
  22 H           -3.6462     2.9934     2.1156 H            1    LIG   0.0000
  23 H           -0.8691    -0.4932     0.0075 H            1    LIG   0.0000
  24 H            1.1683    -1.6969    -0.0199 H            1    LIG   0.0000
@<TRIPOS>BOND
   1        1        2 1
   2        2        3 2
   3        3        4 1
   4        4        5 1
   5        5        6 ar
   6        6        7 ar
   7        7        8 1
   8        7        9 ar
   9        9       10 1
  10        9       11 ar
  11       11       12 ar
  12       12        5 ar
  13       12       13 1
  14        4       14 1
  15       14       15 2
  16       15       16 1
  17       16        2 1
  18       16       17 2
  19        1       18 1
  20        1       19 1
  21        3       20 1
  22        6       21 1
  23       11       22 1
  24       14       23 1
  25       15       24 1

@<TRIPOS>MOLECULE

  24   25
SMALL
USER_CHARGES
@<TRIPOS>ATOM
   1 N1           3.5829     2.1362    -0.0244 N.pl3        1    LIG   0.0000
   2 C2           2.3719     1.4346    -0.0164 C.2          1    LIG   0.0000
   3 C3           1.1612     2.0783     0.0005 C.2          1    LIG   0.0000
   4 N4          -0.0178     1.3772     0.0083 N.pl3        1    LIG   0.0000
   5 C5          -1.2384     2.0614     0.0249 C.ar         1    LIG   0.0000
   6 C6          -1.3882     3.2090    -0.7454 C.ar         1    LIG   0.0000
   7 C7          -2.6084     3.8749    -0.7160 C.ar         1    LIG   0.0000
   8 Cl8         -2.8273     5.3468    -1.6916 Cl           1    LIG   0.0000
   9 C9          -3.6564     3.4032     0.0655 C.ar         1    LIG   0.0000
  10 Cl10        -5.2101     4.2709     0.0875 Cl           1    LIG   0.0000
  11 C11         -3.5059     2.2558     0.8362 C.ar         1    LIG   0.0000
  12 C12         -2.2859     1.5897     0.8077 C.ar         1    LIG   0.0000
  13 Cl13        -2.0675     0.1187     1.7856 Cl           1    LIG   0.0000
  14 C14         -0.0024     0.0056     0.0010 C.2          1    LIG   0.0000
  15 C15          1.1753    -0.6969    -0.0150 C.2          1    LIG   0.0000
  16 C16          2.4062     0.0142    -0.0245 C.2          1    LIG   0.0000
  17 O17          3.4714    -0.5823    -0.0389 O.2          1    LIG   0.0000
  18 H            3.5815     3.1362    -0.0190 H            1    LIG   0.0000
  19 H            4.4496     1.6376    -0.0357 H            1    LIG   0.0000
  20 H            1.1374     3.0780     0.0073 H            1    LIG   0.0000
  21 H           -0.6347     3.5483    -1.3084 H            1    LIG   0.0000
  22 H           -4.2595     1.9168     1.3993 H            1    LIG   0.0000
  23 H           -0.8691    -0.4932     0.0075 H            1    LIG   0.0000
  24 H            1.1683    -1.6969    -0.0199 H            1    LIG   0.0000
@<TRIPOS>BOND
   1        1        2 1
   2        2        3 2
   3        3        4 1
   4        4        5 1
   5        5        6 ar
   6        6        7 ar
   7        7        8 1
   8        7        9 ar
   9        9       10 1
  10        9       11 ar
  11       11       12 ar
  12       12        5 ar
  13       12       13 1
  14        4       14 1
  15       14       15 2
  16       15       16 1
  17       16        2 1
  18       16       17 2
  19        1       18 1
  20        1       19 1
  21        3       20 1
  22        6       21 1
  23       11       22 1
  24       14       23 1
  25       15       24 1

@<TRIPOS>MOLECULE

  24   25
SMALL
USER_CHARGES
@<TRIPOS>ATOM
   1 N1           3.5829     2.1362    -0.0244 N.pl3        1    LIG   0.0000
   2 C2           2.3719     1.4346    -0.0164 C.2          1    LIG   0.0000
   3 C3           1.1612     2.0783     0.0005 C.2          1    LIG   0.0000
   4 N4          -0.0178     1.3772     0.0083 N.pl3        1    LIG   0.0000
   5 C5          -1.2384     2.0614     0.0249 C.ar         1    LIG   0.0000
   6 C6          -1.8464     2.4023    -1.1780 C.ar         1    LIG   0.0000
   7 C7          -3.0589     3.0817    -1.1411 C.ar         1    LIG   0.0000
   8 Cl8         -3.8585     3.5311    -2.6658 Cl           1    LIG   0.0000
   9 C9          -3.6513     3.4121     0.0720 C.ar         1    LIG   0.0000
  10 Cl10        -5.2041     4.2813     0.0958 Cl           1    LIG   0.0000
  11 C11         -3.0426     3.0716     1.2747 C.ar         1    LIG   0.0000
  12 C12         -1.8299     2.3926     1.2385 C.ar         1    LIG   0.0000
  13 Cl13        -1.0300     1.9456     2.7644 Cl           1    LIG   0.0000
  14 C14         -0.0024     0.0056     0.0010 C.2          1    LIG   0.0000
  15 C15          1.1753    -0.6969    -0.0150 C.2          1    LIG   0.0000
  16 C16          2.4062     0.0142    -0.0245 C.2          1    LIG   0.0000
  17 O17          3.4714    -0.5823    -0.0389 O.2          1    LIG   0.0000
  18 H            3.5815     3.1362    -0.0190 H            1    LIG   0.0000
  19 H            4.4496     1.6376    -0.0357 H            1    LIG   0.0000
  20 H            1.1374     3.0780     0.0073 H            1    LIG   0.0000
  21 H           -1.4208     2.1640    -2.0509 H            1    LIG   0.0000
  22 H           -3.4683     3.3101     2.1476 H            1    LIG   0.0000
  23 H           -0.8691    -0.4932     0.0075 H            1    LIG   0.0000
  24 H            1.1683    -1.6969    -0.0199 H            1    LIG   0.0000
@<TRIPOS>BOND
   1        1        2 1
   2        2        3 2
   3        3        4 1
   4        4        5 1
   5        5        6 ar
   6        6        7 ar
   7        7        8 1
   8        7        9 ar
   9        9       10 1
  10        9       11 ar
  11       11       12 ar
  12       12        5 ar
  13       12       13 1
  14        4       14 1
  15       14       15 2
  16       15       16 1
  17       16        2 1
  18       16       17 2
  19        1       18 1
  20        1       19 1
  21        3       20 1
  22        6       21 1
  23       11       22 1
  24       14       23 1
  25       15       24 1

