@<TRIPOS>MOLECULE
*****
 24 25 0 0 0
SMALL
USER_CHARGES

@<TRIPOS>ATOM
      1 N1          3.5829    2.1362   -0.0244 N.pl3   1  LIG1        0.0000
      2 C2          2.3719    1.4346   -0.0164 C.2     1  LIG1        0.0000
      3 C3          1.1612    2.0783    0.0005 C.2     1  LIG1        0.0000
      4 N4         -0.0178    1.3772    0.0083 N.pl3   1  LIG1        0.0000
      5 C5         -1.2384    2.0614    0.0249 C.3     1  LIG1        0.0000
      6 C6         -1.9244    2.2049    1.2255 C.3     1  LIG1        0.0000
      7 C7         -3.1353    2.8882    1.2220 C.3     1  LIG1        0.0000
      8 Cl8        -4.0347    3.0856    2.7446 Cl      1  LIG1        0.0000
      9 C9         -3.6487    3.4175    0.0439 C.3     1  LIG1        0.0000
     10 Cl10       -5.2002    4.2891    0.0625 Cl      1  LIG1        0.0000
     11 C11        -2.9627    3.2732   -1.1567 C.3     1  LIG1        0.0000
     12 C12        -1.7520    2.5898   -1.1540 C.3     1  LIG1        0.0000
     13 Cl13       -0.8543    2.3910   -2.6780 Cl      1  LIG1        0.0000
     14 C14        -0.0024    0.0056    0.0010 C.2     1  LIG1        0.0000
     15 C15         1.1753   -0.6969   -0.0150 C.2     1  LIG1        0.0000
     16 C16         2.4062    0.0142   -0.0245 C.2     1  LIG1        0.0000
     17 O17         3.4714   -0.5823   -0.0389 O.2     1  LIG1        0.0000
     18 H           3.5815    3.1362   -0.0190 H       1  LIG1        0.0000
     19 H           4.4496    1.6376   -0.0357 H       1  LIG1        0.0000
     20 H           1.1374    3.0780    0.0073 H       1  LIG1        0.0000
     21 H          -1.5549    1.8248    2.0735 H       1  LIG1        0.0000
     22 H          -3.3324    3.6532   -2.0046 H       1  LIG1        0.0000
     23 H          -0.8691   -0.4932    0.0075 H       1  LIG1        0.0000
     24 H           1.1683   -1.6969   -0.0199 H       1  LIG1        0.0000
@<TRIPOS>BOND
     1     1     2    1
     2     2     3    2
     3     3     4    1
     4     4     5    1
     5     5     6   ar
     6     6     7   ar
     7     7     8    1
     8     7     9   ar
     9     9    10    1
    10     9    11   ar
    11    11    12   ar
    12    12     5   ar
    13    12    13    1
    14     4    14    1
    15    14    15    2
    16    15    16    1
    17    16     2    1
    18    16    17    2
    19     1    18    1
    20     1    19    1
    21     3    20    1
    22     6    21    1
    23    11    22    1
    24    14    23    1
    25    15    24    1
