@<TRIPOS>MOLECULE

  54   57
SMALL
USER_CHARGES
@<TRIPOS>ATOM
   1 C1           3.1986    -2.5503     0.9839 C.3          1    LIG   0.0000
   2 O2           2.4028    -1.3742     0.9891 O.3          1    LIG   0.0000
   3 C3           3.0863    -0.2100     0.9946 C.ar         1    LIG   0.0000
   4 C4           4.4768    -0.2309     0.9944 C.ar         1    LIG   0.0000
   5 C5           5.1644     0.9779     0.9999 C.ar         1    LIG   0.0000
   6 C6           6.6846     0.9678     0.9988 C.3          1    LIG   0.0000
   7 C7           7.1923     0.9572     2.4314 C.3          1    LIG   0.0000
   8 O8           8.6123     0.9478     2.4304 O.3          1    LIG   0.0000
   9 C9           4.4829     2.1911     1.0066 C.ar         1    LIG   0.0000
  10 C10          3.0917     2.2071     1.0063 C.ar         1    LIG   0.0000
  11 C11          2.4004     1.0000     1.0000 C.ar         1    LIG   0.0000
  12 N12          1.0000     1.0000     1.0000 N.pl3        1    LIG   0.0000
  13 C13          0.2650     2.2730     1.0057 C.3          1    LIG   0.0000
  14 C14         -1.2311     1.9950     1.0044 C.2          1    LIG   0.0000
  15 C15         -2.0086     1.8456     2.1108 C.2          1    LIG   0.0000
  16 C16         -1.5692     1.9201     3.4908 C.ar         1    LIG   0.0000
  17 C17         -2.3682     2.5614     4.4322 C.ar         1    LIG   0.0000
  18 C18         -1.9552     2.6383     5.7584 C.ar         1    LIG   0.0000
  19 C19         -0.7398     2.0687     6.1239 C.ar         1    LIG   0.0000
  20 F20         -0.3392     2.1385     7.3901 F            1    LIG   0.0000
  21 C21          0.0660     1.4262     5.1898 C.ar         1    LIG   0.0000
  22 C22         -0.3557     1.3537     3.8660 C.ar         1    LIG   0.0000
  23 N23         -3.2781     1.6159     1.6759 N.2          1    LIG   0.0000
  24 C24         -3.2708     1.6247     0.3571 C.2          1    LIG   0.0000
  25 C25         -4.3191     1.4251    -0.5760 C.2          1    LIG   0.0000
  26 C26         -4.0839     1.4752    -1.9258 C.2          1    LIG   0.0000
  27 C27         -2.7648     1.7270    -2.3851 C.2          1    LIG   0.0000
  28 C28         -2.5171     1.7851    -3.8857 C.3          1    LIG   0.0000
  29 C29         -1.7736     1.9078    -1.4520 C.2          1    LIG   0.0000
  30 N30         -2.0206     1.8580    -0.1025 N.pl3        1    LIG   0.0000
  31 H            2.6046    -3.3547     0.9800 H            1    LIG   0.0000
  32 H            3.7760    -2.5584     0.1675 H            1    LIG   0.0000
  33 H            3.7756    -2.5659     1.8005 H            1    LIG   0.0000
  34 H            4.9730    -1.0991     0.9902 H            1    LIG   0.0000
  35 H            7.0230     1.7844     0.5312 H            1    LIG   0.0000
  36 H            7.0122     0.1515     0.5230 H            1    LIG   0.0000
  37 H            6.8647     1.7735     2.9072 H            1    LIG   0.0000
  38 H            6.8539     0.1406     2.8990 H            1    LIG   0.0000
  39 H            8.9463     0.9408     3.3729 H            1    LIG   0.0000
  40 H            4.9929     3.0512     1.0117 H            1    LIG   0.0000
  41 H            2.5952     3.0751     1.0104 H            1    LIG   0.0000
  42 H            0.5000     0.1340     0.9961 H            1    LIG   0.0000
  43 H            0.5066     2.8011     0.1915 H            1    LIG   0.0000
  44 H            0.5066     2.7938     1.8245 H            1    LIG   0.0000
  45 H           -3.2394     2.9670     4.1554 H            1    LIG   0.0000
  46 H           -2.5248     3.0972     6.4403 H            1    LIG   0.0000
  47 H            0.9377     1.0215     5.4663 H            1    LIG   0.0000
  48 H            0.2137     0.8942     3.1842 H            1    LIG   0.0000
  49 H           -5.2451     1.2448    -0.2444 H            1    LIG   0.0000
  50 H           -4.8303     1.3365    -2.5767 H            1    LIG   0.0000
  51 H           -3.3764     1.6261    -4.3718 H            1    LIG   0.0000
  52 H           -2.1579     2.6860    -4.1296 H            1    LIG   0.0000
  53 H           -1.8542     1.0815    -4.1415 H            1    LIG   0.0000
  54 H           -0.8402     2.0815    -1.7661 H            1    LIG   0.0000
@<TRIPOS>BOND
   1        1        2 1
   2        2        3 1
   3        3        4 ar
   4        4        5 ar
   5        5        6 1
   6        6        7 1
   7        7        8 1
   8        5        9 ar
   9        9       10 ar
  10       10       11 ar
  11       11        3 ar
  12       11       12 1
  13       12       13 1
  14       13       14 1
  15       14       15 2
  16       15       16 1
  17       16       17 ar
  18       17       18 ar
  19       18       19 ar
  20       19       20 1
  21       19       21 ar
  22       21       22 ar
  23       22       16 ar
  24       15       23 1
  25       23       24 2
  26       24       25 1
  27       25       26 2
  28       26       27 1
  29       27       28 1
  30       27       29 2
  31       29       30 1
  32       30       14 1
  33       30       24 1
  34        1       31 1
  35        1       32 1
  36        1       33 1
  37        4       34 1
  38        6       35 1
  39        6       36 1
  40        7       37 1
  41        7       38 1
  42        8       39 1
  43        9       40 1
  44       10       41 1
  45       12       42 1
  46       13       43 1
  47       13       44 1
  48       17       45 1
  49       18       46 1
  50       21       47 1
  51       22       48 1
  52       25       49 1
  53       26       50 1
  54       28       51 1
  55       28       52 1
  56       28       53 1
  57       29       54 1

@<TRIPOS>MOLECULE

  54   57
SMALL
USER_CHARGES
@<TRIPOS>ATOM
   1 C1           3.1986    -2.5503     0.9839 C.3          1    LIG   0.0000
   2 O2           2.4028    -1.3742     0.9891 O.3          1    LIG   0.0000
   3 C3           3.0863    -0.2100     0.9946 C.ar         1    LIG   0.0000
   4 C4           4.4768    -0.2309     0.9944 C.ar         1    LIG   0.0000
   5 C5           5.1644     0.9779     0.9999 C.ar         1    LIG   0.0000
   6 C6           6.6846     0.9678     0.9988 C.3          1    LIG   0.0000
   7 C7           7.1923     0.9572     2.4314 C.3          1    LIG   0.0000
   8 O8           8.6123     0.9478     2.4304 O.3          1    LIG   0.0000
   9 C9           4.4829     2.1911     1.0066 C.ar         1    LIG   0.0000
  10 C10          3.0917     2.2071     1.0063 C.ar         1    LIG   0.0000
  11 C11          2.4004     1.0000     1.0000 C.ar         1    LIG   0.0000
  12 N12          1.0000     1.0000     1.0000 N.pl3        1    LIG   0.0000
  13 C13          0.2650     2.2730     1.0057 C.3          1    LIG   0.0000
  14 C14         -1.2311     1.9950     1.0044 C.2          1    LIG   0.0000
  15 C15         -2.0086     1.8554    -0.1032 C.2          1    LIG   0.0000
  16 C16         -1.5695     1.9441    -1.4825 C.ar         1    LIG   0.0000
  17 C17         -2.0833     1.0589    -2.4250 C.ar         1    LIG   0.0000
  18 C18         -1.6681     1.1359    -3.7505 C.ar         1    LIG   0.0000
  19 C19         -0.7380     2.1042    -4.1143 C.ar         1    LIG   0.0000
  20 F20         -0.3370     2.1834    -5.3798 F            1    LIG   0.0000
  21 C21         -0.2183     2.9931    -3.1790 C.ar         1    LIG   0.0000
  22 C22         -0.6400     2.9089    -1.8559 C.ar         1    LIG   0.0000
  23 N23         -3.2765     1.6135     0.3295 N.2          1    LIG   0.0000
  24 C24         -3.2686     1.6075     1.6484 C.2          1    LIG   0.0000
  25 C25         -4.3201     1.4168     2.5798 C.2          1    LIG   0.0000
  26 C26         -4.0848     1.4541     3.9300 C.2          1    LIG   0.0000
  27 C27         -2.7641     1.6930     4.3914 C.2          1    LIG   0.0000
  28 C28         -2.5144     1.7273     5.8924 C.3          1    LIG   0.0000
  29 C29         -1.7726     1.8807     3.4599 C.2          1    LIG   0.0000
  30 N30         -2.0189     1.8388     2.1101 N.pl3        1    LIG   0.0000
  31 H            2.6046    -3.3547     0.9800 H            1    LIG   0.0000
  32 H            3.7760    -2.5584     0.1675 H            1    LIG   0.0000
  33 H            3.7756    -2.5659     1.8005 H            1    LIG   0.0000
  34 H            4.9730    -1.0991     0.9902 H            1    LIG   0.0000
  35 H            7.0230     1.7844     0.5312 H            1    LIG   0.0000
  36 H            7.0122     0.1515     0.5230 H            1    LIG   0.0000
  37 H            6.8647     1.7735     2.9072 H            1    LIG   0.0000
  38 H            6.8539     0.1406     2.8990 H            1    LIG   0.0000
  39 H            8.9463     0.9408     3.3729 H            1    LIG   0.0000
  40 H            4.9929     3.0512     1.0117 H            1    LIG   0.0000
  41 H            2.5952     3.0751     1.0104 H            1    LIG   0.0000
  42 H            0.5000     0.1340     0.9961 H            1    LIG   0.0000
  43 H            0.5066     2.8011     0.1915 H            1    LIG   0.0000
  44 H            0.5066     2.7938     1.8245 H            1    LIG   0.0000
  45 H           -2.7510     0.3673    -2.1495 H            1    LIG   0.0000
  46 H           -2.0337     0.5032    -4.4332 H            1    LIG   0.0000
  47 H            0.4502     3.6840    -3.4543 H            1    LIG   0.0000
  48 H           -0.2748     3.5420    -1.1734 H            1    LIG   0.0000
  49 H           -5.2486     1.2525     2.2466 H            1    LIG   0.0000
  50 H           -4.8322     1.3152     4.5796 H            1    LIG   0.0000
  51 H           -3.3743     1.5669     6.3771 H            1    LIG   0.0000
  52 H           -1.8560     1.0156     6.1372 H            1    LIG   0.0000
  53 H           -2.1490     2.6221     6.1491 H            1    LIG   0.0000
  54 H           -0.8397     2.0539     3.7756 H            1    LIG   0.0000
@<TRIPOS>BOND
   1        1        2 1
   2        2        3 1
   3        3        4 ar
   4        4        5 ar
   5        5        6 1
   6        6        7 1
   7        7        8 1
   8        5        9 ar
   9        9       10 ar
  10       10       11 ar
  11       11        3 ar
  12       11       12 1
  13       12       13 1
  14       13       14 1
  15       14       15 2
  16       15       16 1
  17       16       17 ar
  18       17       18 ar
  19       18       19 ar
  20       19       20 1
  21       19       21 ar
  22       21       22 ar
  23       22       16 ar
  24       15       23 1
  25       23       24 2
  26       24       25 1
  27       25       26 2
  28       26       27 1
  29       27       28 1
  30       27       29 2
  31       29       30 1
  32       30       14 1
  33       30       24 1
  34        1       31 1
  35        1       32 1
  36        1       33 1
  37        4       34 1
  38        6       35 1
  39        6       36 1
  40        7       37 1
  41        7       38 1
  42        8       39 1
  43        9       40 1
  44       10       41 1
  45       12       42 1
  46       13       43 1
  47       13       44 1
  48       17       45 1
  49       18       46 1
  50       21       47 1
  51       22       48 1
  52       25       49 1
  53       26       50 1
  54       28       51 1
  55       28       52 1
  56       28       53 1
  57       29       54 1

@<TRIPOS>MOLECULE

  54   57
SMALL
USER_CHARGES
@<TRIPOS>ATOM
   1 C1           3.1986    -2.5503     0.9839 C.3          1    LIG   0.0000
   2 O2           2.4028    -1.3742     0.9891 O.3          1    LIG   0.0000
   3 C3           3.0863    -0.2100     0.9946 C.ar         1    LIG   0.0000
   4 C4           4.4768    -0.2309     0.9944 C.ar         1    LIG   0.0000
   5 C5           5.1644     0.9779     0.9999 C.ar         1    LIG   0.0000
   6 C6           6.6846     0.9678     0.9988 C.3          1    LIG   0.0000
   7 C7           7.1923     0.9572     2.4314 C.3          1    LIG   0.0000
   8 O8           8.6123     0.9478     2.4304 O.3          1    LIG   0.0000
   9 C9           4.4829     2.1911     1.0066 C.ar         1    LIG   0.0000
  10 C10          3.0917     2.2071     1.0063 C.ar         1    LIG   0.0000
  11 C11          2.4004     1.0000     1.0000 C.ar         1    LIG   0.0000
  12 N12          1.0000     1.0000     1.0000 N.pl3        1    LIG   0.0000
  13 C13          0.2650     2.2730     1.0057 C.3          1    LIG   0.0000
  14 C14          0.0114     2.7187    -0.4271 C.2          1    LIG   0.0000
  15 C15         -0.6423     3.8525    -0.7986 C.2          1    LIG   0.0000
  16 C16         -1.2190     4.8457     0.0869 C.ar         1    LIG   0.0000
  17 C17         -1.0967     6.1964    -0.2237 C.ar         1    LIG   0.0000
  18 C18         -1.6464     7.1566     0.6197 C.ar         1    LIG   0.0000
  19 C19         -2.3139     6.7468     1.7693 C.ar         1    LIG   0.0000
  20 F20         -2.8419     7.6595     2.5796 F            1    LIG   0.0000
  21 C21         -2.4407     5.3988     2.0884 C.ar         1    LIG   0.0000
  22 C22         -1.8883     4.4458     1.2386 C.ar         1    LIG   0.0000
  23 N23         -0.6491     3.8790    -2.1597 N.2          1    LIG   0.0000
  24 C24         -0.0248     2.8026    -2.5969 C.2          1    LIG   0.0000
  25 C25          0.2291     2.3512    -3.9164 C.2          1    LIG   0.0000
  26 C26          0.9057     1.1811    -4.1460 C.2          1    LIG   0.0000
  27 C27          1.3504     0.4150    -3.0372 C.2          1    LIG   0.0000
  28 C28          2.1046    -0.8796    -3.3047 C.3          1    LIG   0.0000
  29 C29          1.0795     0.8798    -1.7736 C.2          1    LIG   0.0000
  30 N30          0.4033     2.0544    -1.5551 N.pl3        1    LIG   0.0000
  31 H            2.6046    -3.3547     0.9800 H            1    LIG   0.0000
  32 H            3.7760    -2.5584     0.1675 H            1    LIG   0.0000
  33 H            3.7756    -2.5659     1.8005 H            1    LIG   0.0000
  34 H            4.9730    -1.0991     0.9902 H            1    LIG   0.0000
  35 H            7.0230     1.7844     0.5312 H            1    LIG   0.0000
  36 H            7.0122     0.1515     0.5230 H            1    LIG   0.0000
  37 H            6.8647     1.7735     2.9072 H            1    LIG   0.0000
  38 H            6.8539     0.1406     2.8990 H            1    LIG   0.0000
  39 H            8.9463     0.9408     3.3729 H            1    LIG   0.0000
  40 H            4.9929     3.0512     1.0117 H            1    LIG   0.0000
  41 H            2.5952     3.0751     1.0104 H            1    LIG   0.0000
  42 H            0.5000     0.1340     0.9961 H            1    LIG   0.0000
  43 H            0.8054     2.9679     1.4802 H            1    LIG   0.0000
  44 H           -0.6088     2.1514     1.4765 H            1    LIG   0.0000
  45 H           -0.6137     6.4769    -1.0531 H            1    LIG   0.0000
  46 H           -1.5627     8.1291     0.4022 H            1    LIG   0.0000
  47 H           -2.9228     5.1183     2.9184 H            1    LIG   0.0000
  48 H           -1.9726     3.4733     1.4558 H            1    LIG   0.0000
  49 H           -0.0905     2.8951    -4.6924 H            1    LIG   0.0000
  50 H            1.0832     0.8722    -5.0804 H            1    LIG   0.0000
  51 H            2.1865    -1.0199    -4.2915 H            1    LIG   0.0000
  52 H            3.0170    -0.8238    -2.8992 H            1    LIG   0.0000
  53 H            1.6060    -1.6458    -2.8993 H            1    LIG   0.0000
  54 H            1.3852     0.3446    -0.9862 H            1    LIG   0.0000
@<TRIPOS>BOND
   1        1        2 1
   2        2        3 1
   3        3        4 ar
   4        4        5 ar
   5        5        6 1
   6        6        7 1
   7        7        8 1
   8        5        9 ar
   9        9       10 ar
  10       10       11 ar
  11       11        3 ar
  12       11       12 1
  13       12       13 1
  14       13       14 1
  15       14       15 2
  16       15       16 1
  17       16       17 ar
  18       17       18 ar
  19       18       19 ar
  20       19       20 1
  21       19       21 ar
  22       21       22 ar
  23       22       16 ar
  24       15       23 1
  25       23       24 2
  26       24       25 1
  27       25       26 2
  28       26       27 1
  29       27       28 1
  30       27       29 2
  31       29       30 1
  32       30       14 1
  33       30       24 1
  34        1       31 1
  35        1       32 1
  36        1       33 1
  37        4       34 1
  38        6       35 1
  39        6       36 1
  40        7       37 1
  41        7       38 1
  42        8       39 1
  43        9       40 1
  44       10       41 1
  45       12       42 1
  46       13       43 1
  47       13       44 1
  48       17       45 1
  49       18       46 1
  50       21       47 1
  51       22       48 1
  52       25       49 1
  53       26       50 1
  54       28       51 1
  55       28       52 1
  56       28       53 1
  57       29       54 1

@<TRIPOS>MOLECULE

  54   57
SMALL
USER_CHARGES
@<TRIPOS>ATOM
   1 C1           3.1986    -2.5503     0.9839 C.3          1    LIG   0.0000
   2 O2           2.4028    -1.3742     0.9891 O.3          1    LIG   0.0000
   3 C3           3.0863    -0.2100     0.9946 C.ar         1    LIG   0.0000
   4 C4           4.4768    -0.2309     0.9944 C.ar         1    LIG   0.0000
   5 C5           5.1644     0.9779     0.9999 C.ar         1    LIG   0.0000
   6 C6           6.6846     0.9678     0.9988 C.3          1    LIG   0.0000
   7 C7           7.1923     0.9572     2.4314 C.3          1    LIG   0.0000
   8 O8           8.6123     0.9478     2.4304 O.3          1    LIG   0.0000
   9 C9           4.4829     2.1911     1.0066 C.ar         1    LIG   0.0000
  10 C10          3.0917     2.2071     1.0063 C.ar         1    LIG   0.0000
  11 C11          2.4004     1.0000     1.0000 C.ar         1    LIG   0.0000
  12 N12          1.0000     1.0000     1.0000 N.pl3        1    LIG   0.0000
  13 C13          0.2650     2.2730     1.0057 C.3          1    LIG   0.0000
  14 C14          0.0114     2.7059     2.4423 C.2          1    LIG   0.0000
  15 C15         -0.6423     3.8364     2.8239 C.2          1    LIG   0.0000
  16 C16         -1.2174     4.8383     1.9472 C.ar         1    LIG   0.0000
  17 C17         -2.4471     5.4056     2.2664 C.ar         1    LIG   0.0000
  18 C18         -3.0071     6.3674     1.4316 C.ar         1    LIG   0.0000
  19 C19         -2.3228     6.7483     0.2819 C.ar         1    LIG   0.0000
  20 F20         -2.8524     7.6673    -0.5203 F            1    LIG   0.0000
  21 C21         -1.0933     6.1863    -0.0458 C.ar         1    LIG   0.0000
  22 C22         -0.5409     5.2257     0.7956 C.ar         1    LIG   0.0000
  23 N23         -0.6565     3.8465     4.1852 N.2          1    LIG   0.0000
  24 C24         -0.0348     2.7647     4.6128 C.2          1    LIG   0.0000
  25 C25          0.2342     2.3104     5.9283 C.2          1    LIG   0.0000
  26 C26          0.9101     1.1378     6.1475 C.2          1    LIG   0.0000
  27 C27          1.3470     0.3771     5.0318 C.2          1    LIG   0.0000
  28 C28          2.0921    -0.9251     5.2878 C.3          1    LIG   0.0000
  29 C29          1.0750     0.8525     3.7725 C.2          1    LIG   0.0000
  30 N30          0.3951     2.0268     3.5643 N.pl3        1    LIG   0.0000
  31 H            2.6046    -3.3547     0.9800 H            1    LIG   0.0000
  32 H            3.7760    -2.5584     0.1675 H            1    LIG   0.0000
  33 H            3.7756    -2.5659     1.8005 H            1    LIG   0.0000
  34 H            4.9730    -1.0991     0.9902 H            1    LIG   0.0000
  35 H            7.0230     1.7844     0.5312 H            1    LIG   0.0000
  36 H            7.0122     0.1515     0.5230 H            1    LIG   0.0000
  37 H            6.8647     1.7735     2.9072 H            1    LIG   0.0000
  38 H            6.8539     0.1406     2.8990 H            1    LIG   0.0000
  39 H            8.9463     0.9408     3.3729 H            1    LIG   0.0000
  40 H            4.9929     3.0512     1.0117 H            1    LIG   0.0000
  41 H            2.5952     3.0751     1.0104 H            1    LIG   0.0000
  42 H            0.5000     0.1340     0.9961 H            1    LIG   0.0000
  43 H           -0.6088     2.1556     0.5337 H            1    LIG   0.0000
  44 H            0.8054     2.9721     0.5374 H            1    LIG   0.0000
  45 H           -2.9284     5.1221     3.0958 H            1    LIG   0.0000
  46 H           -3.8903     6.7796     1.6552 H            1    LIG   0.0000
  47 H           -0.6125     6.4691    -0.8757 H            1    LIG   0.0000
  48 H            0.3426     4.8139     0.5722 H            1    LIG   0.0000
  49 H           -0.0740     2.8539     6.7091 H            1    LIG   0.0000
  50 H            1.0925     0.8235     7.0791 H            1    LIG   0.0000
  51 H            2.1765    -1.0727     6.2732 H            1    LIG   0.0000
  52 H            1.5859    -1.6846     4.8791 H            1    LIG   0.0000
  53 H            3.0033    -0.8736     4.8792 H            1    LIG   0.0000
  54 H            1.3826     0.3255     2.9803 H            1    LIG   0.0000
@<TRIPOS>BOND
   1        1        2 1
   2        2        3 1
   3        3        4 ar
   4        4        5 ar
   5        5        6 1
   6        6        7 1
   7        7        8 1
   8        5        9 ar
   9        9       10 ar
  10       10       11 ar
  11       11        3 ar
  12       11       12 1
  13       12       13 1
  14       13       14 1
  15       14       15 2
  16       15       16 1
  17       16       17 ar
  18       17       18 ar
  19       18       19 ar
  20       19       20 1
  21       19       21 ar
  22       21       22 ar
  23       22       16 ar
  24       15       23 1
  25       23       24 2
  26       24       25 1
  27       25       26 2
  28       26       27 1
  29       27       28 1
  30       27       29 2
  31       29       30 1
  32       30       14 1
  33       30       24 1
  34        1       31 1
  35        1       32 1
  36        1       33 1
  37        4       34 1
  38        6       35 1
  39        6       36 1
  40        7       37 1
  41        7       38 1
  42        8       39 1
  43        9       40 1
  44       10       41 1
  45       12       42 1
  46       13       43 1
  47       13       44 1
  48       17       45 1
  49       18       46 1
  50       21       47 1
  51       22       48 1
  52       25       49 1
  53       26       50 1
  54       28       51 1
  55       28       52 1
  56       28       53 1
  57       29       54 1

@<TRIPOS>MOLECULE

  54   57
SMALL
USER_CHARGES
@<TRIPOS>ATOM
   1 C1           3.1986    -2.0827     2.7612 C.3          1    LIG   0.0000
   2 O2           2.4028    -1.0616     2.1777 O.3          1    LIG   0.0000
   3 C3           3.0863    -0.0505     1.6003 C.ar         1    LIG   0.0000
   4 C4           4.4768    -0.0689     1.6106 C.ar         1    LIG   0.0000
   5 C5           5.1644     0.9808     1.0110 C.ar         1    LIG   0.0000
   6 C6           6.6846     0.9715     1.0150 C.3          1    LIG   0.0000
   7 C7           7.1923     1.6787     2.2611 C.3          1    LIG   0.0000
   8 O8           8.6123     1.6700     2.2648 O.3          1    LIG   0.0000
   9 C9           4.4829     2.0348     0.4102 C.ar         1    LIG   0.0000
  10 C10          3.0917     2.0485     0.4019 C.ar         1    LIG   0.0000
  11 C11          2.4004     1.0000     1.0000 C.ar         1    LIG   0.0000
  12 N12          1.0000     1.0000     1.0000 N.pl3        1    LIG   0.0000
  13 C13          0.2650     2.2730     1.0057 C.3          1    LIG   0.0000
  14 C14          0.0114     2.7059     2.4423 C.2          1    LIG   0.0000
  15 C15          0.8383     3.4844     3.1913 C.2          1    LIG   0.0000
  16 C16          2.1080     4.0464     2.7729 C.ar         1    LIG   0.0000
  17 C17          3.1746     4.0735     3.6660 C.ar         1    LIG   0.0000
  18 C18          4.3965     4.6108     3.2740 C.ar         1    LIG   0.0000
  19 C19          4.5323     5.1168     1.9853 C.ar         1    LIG   0.0000
  20 F20          5.6977     5.6316     1.6041 F            1    LIG   0.0000
  21 C21          3.4715     5.0946     1.0858 C.ar         1    LIG   0.0000
  22 C22          2.2536     4.5547     1.4866 C.ar         1    LIG   0.0000
  23 N23          0.2455     3.6381     4.4073 N.2          1    LIG   0.0000
  24 C24         -0.8962     2.9777     4.3965 C.2          1    LIG   0.0000
  25 C25         -1.8773     2.8082     5.4055 C.2          1    LIG   0.0000
  26 C26         -3.0068     2.0655     5.1764 C.2          1    LIG   0.0000
  27 C27         -3.1838     1.4571     3.9065 C.2          1    LIG   0.0000
  28 C28         -4.4439     0.6391     3.6626 C.3          1    LIG   0.0000
  29 C29         -2.2087     1.6369     2.9564 C.2          1    LIG   0.0000
  30 N30         -1.0827     2.3849     3.1956 N.pl3        1    LIG   0.0000
  31 H            2.6046    -2.7813     3.1601 H            1    LIG   0.0000
  32 H            3.7760    -2.4979     2.0582 H            1    LIG   0.0000
  33 H            3.7756    -1.6879     3.4762 H            1    LIG   0.0000
  34 H            4.9730    -0.8228     2.0411 H            1    LIG   0.0000
  35 H            7.0230     1.4450     0.2018 H            1    LIG   0.0000
  36 H            7.0122     0.0267     1.0112 H            1    LIG   0.0000
  37 H            6.8647     2.6235     2.2649 H            1    LIG   0.0000
  38 H            6.8539     1.2052     3.0743 H            1    LIG   0.0000
  39 H            8.9463     2.1352     3.0846 H            1    LIG   0.0000
  40 H            4.9929     2.7823    -0.0155 H            1    LIG   0.0000
  41 H            2.5952     2.8023    -0.0285 H            1    LIG   0.0000
  42 H            0.5000     0.1340     0.9961 H            1    LIG   0.0000
  43 H           -0.6088     2.1556     0.5337 H            1    LIG   0.0000
  44 H            0.8054     2.9721     0.5374 H            1    LIG   0.0000
  45 H            3.0628     3.7068     4.5896 H            1    LIG   0.0000
  46 H            5.1674     4.6329     3.9106 H            1    LIG   0.0000
  47 H            3.5830     5.4623     0.1625 H            1    LIG   0.0000
  48 H            1.4829     4.5320     0.8498 H            1    LIG   0.0000
  49 H           -1.7435     3.2373     6.2988 H            1    LIG   0.0000
  50 H           -3.6952     1.9542     5.8932 H            1    LIG   0.0000
  51 H           -5.0093     0.6439     4.4874 H            1    LIG   0.0000
  52 H           -4.9584     1.0378     2.9035 H            1    LIG   0.0000
  53 H           -4.1919    -0.3019     3.4367 H            1    LIG   0.0000
  54 H           -2.3227     1.2085     2.0600 H            1    LIG   0.0000
@<TRIPOS>BOND
   1        1        2 1
   2        2        3 1
   3        3        4 ar
   4        4        5 ar
   5        5        6 1
   6        6        7 1
   7        7        8 1
   8        5        9 ar
   9        9       10 ar
  10       10       11 ar
  11       11        3 ar
  12       11       12 1
  13       12       13 1
  14       13       14 1
  15       14       15 2
  16       15       16 1
  17       16       17 ar
  18       17       18 ar
  19       18       19 ar
  20       19       20 1
  21       19       21 ar
  22       21       22 ar
  23       22       16 ar
  24       15       23 1
  25       23       24 2
  26       24       25 1
  27       25       26 2
  28       26       27 1
  29       27       28 1
  30       27       29 2
  31       29       30 1
  32       30       14 1
  33       30       24 1
  34        1       31 1
  35        1       32 1
  36        1       33 1
  37        4       34 1
  38        6       35 1
  39        6       36 1
  40        7       37 1
  41        7       38 1
  42        8       39 1
  43        9       40 1
  44       10       41 1
  45       12       42 1
  46       13       43 1
  47       13       44 1
  48       17       45 1
  49       18       46 1
  50       21       47 1
  51       22       48 1
  52       25       49 1
  53       26       50 1
  54       28       51 1
  55       28       52 1
  56       28       53 1
  57       29       54 1

@<TRIPOS>MOLECULE

  54   57
SMALL
USER_CHARGES
@<TRIPOS>ATOM
   1 C1           3.1986    -2.0827     2.7612 C.3          1    LIG   0.0000
   2 O2           2.4028    -1.0616     2.1777 O.3          1    LIG   0.0000
   3 C3           3.0863    -0.0505     1.6003 C.ar         1    LIG   0.0000
   4 C4           4.4768    -0.0689     1.6106 C.ar         1    LIG   0.0000
   5 C5           5.1644     0.9808     1.0110 C.ar         1    LIG   0.0000
   6 C6           6.6846     0.9715     1.0150 C.3          1    LIG   0.0000
   7 C7           7.1923     1.6787     2.2611 C.3          1    LIG   0.0000
   8 O8           8.6123     1.6700     2.2648 O.3          1    LIG   0.0000
   9 C9           4.4829     2.0348     0.4102 C.ar         1    LIG   0.0000
  10 C10          3.0917     2.0485     0.4019 C.ar         1    LIG   0.0000
  11 C11          2.4004     1.0000     1.0000 C.ar         1    LIG   0.0000
  12 N12          1.0000     1.0000     1.0000 N.pl3        1    LIG   0.0000
  13 C13          0.2650     2.2730     1.0057 C.3          1    LIG   0.0000
  14 C14          0.0114     2.7059     2.4423 C.2          1    LIG   0.0000
  15 C15         -1.0791     2.3774     3.1864 C.2          1    LIG   0.0000
  16 C16         -2.1999     1.5612     2.7613 C.ar         1    LIG   0.0000
  17 C17         -2.7560     0.6434     3.6468 C.ar         1    LIG   0.0000
  18 C18         -3.8313    -0.1442     3.2482 C.ar         1    LIG   0.0000
  19 C19         -4.3361    -0.0002     1.9600 C.ar         1    LIG   0.0000
  20 F20         -5.3640    -0.7498     1.5726 F            1    LIG   0.0000
  21 C21         -3.7863     0.9141     1.0674 C.ar         1    LIG   0.0000
  22 C22         -2.7117     1.6980     1.4753 C.ar         1    LIG   0.0000
  23 N23         -0.9165     2.9579     4.4071 N.2          1    LIG   0.0000
  24 C24          0.2277     3.6139     4.4032 C.2          1    LIG   0.0000
  25 C25          0.8529     4.3910     5.4106 C.2          1    LIG   0.0000
  26 C26          2.0621     4.9975     5.1878 C.2          1    LIG   0.0000
  27 C27          2.6867     4.8421     3.9229 C.2          1    LIG   0.0000
  28 C28          4.0311     5.5162     3.6892 C.3          1    LIG   0.0000
  29 C29          2.0477     4.0886     2.9691 C.2          1    LIG   0.0000
  30 N30          0.8380     3.4834     3.2036 N.pl3        1    LIG   0.0000
  31 H            2.6046    -2.7813     3.1601 H            1    LIG   0.0000
  32 H            3.7760    -2.4979     2.0582 H            1    LIG   0.0000
  33 H            3.7756    -1.6879     3.4762 H            1    LIG   0.0000
  34 H            4.9730    -0.8228     2.0411 H            1    LIG   0.0000
  35 H            7.0230     1.4450     0.2018 H            1    LIG   0.0000
  36 H            7.0122     0.0267     1.0112 H            1    LIG   0.0000
  37 H            6.8647     2.6235     2.2649 H            1    LIG   0.0000
  38 H            6.8539     1.2052     3.0743 H            1    LIG   0.0000
  39 H            8.9463     2.1352     3.0846 H            1    LIG   0.0000
  40 H            4.9929     2.7823    -0.0155 H            1    LIG   0.0000
  41 H            2.5952     2.8023    -0.0285 H            1    LIG   0.0000
  42 H            0.5000     0.1340     0.9961 H            1    LIG   0.0000
  43 H           -0.6088     2.1556     0.5337 H            1    LIG   0.0000
  44 H            0.8054     2.9721     0.5374 H            1    LIG   0.0000
  45 H           -2.3828     0.5499     4.5699 H            1    LIG   0.0000
  46 H           -4.2361    -0.8054     3.8797 H            1    LIG   0.0000
  47 H           -4.1589     1.0069     0.1441 H            1    LIG   0.0000
  48 H           -2.3072     2.3596     0.8440 H            1    LIG   0.0000
  49 H            0.4048     4.4984     6.2980 H            1    LIG   0.0000
  50 H            2.4973     5.5411     5.9055 H            1    LIG   0.0000
  51 H            4.3051     6.0089     4.5152 H            1    LIG   0.0000
  52 H            4.7181     4.8231     3.4712 H            1    LIG   0.0000
  53 H            3.9534     6.1597     2.9276 H            1    LIG   0.0000
  54 H            2.4781     3.9770     2.0733 H            1    LIG   0.0000
@<TRIPOS>BOND
   1        1        2 1
   2        2        3 1
   3        3        4 ar
   4        4        5 ar
   5        5        6 1
   6        6        7 1
   7        7        8 1
   8        5        9 ar
   9        9       10 ar
  10       10       11 ar
  11       11        3 ar
  12       11       12 1
  13       12       13 1
  14       13       14 1
  15       14       15 2
  16       15       16 1
  17       16       17 ar
  18       17       18 ar
  19       18       19 ar
  20       19       20 1
  21       19       21 ar
  22       21       22 ar
  23       22       16 ar
  24       15       23 1
  25       23       24 2
  26       24       25 1
  27       25       26 2
  28       26       27 1
  29       27       28 1
  30       27       29 2
  31       29       30 1
  32       30       14 1
  33       30       24 1
  34        1       31 1
  35        1       32 1
  36        1       33 1
  37        4       34 1
  38        6       35 1
  39        6       36 1
  40        7       37 1
  41        7       38 1
  42        8       39 1
  43        9       40 1
  44       10       41 1
  45       12       42 1
  46       13       43 1
  47       13       44 1
  48       17       45 1
  49       18       46 1
  50       21       47 1
  51       22       48 1
  52       25       49 1
  53       26       50 1
  54       28       51 1
  55       28       52 1
  56       28       53 1
  57       29       54 1

@<TRIPOS>MOLECULE

  54   57
SMALL
USER_CHARGES
@<TRIPOS>ATOM
   1 C1           3.1986    -2.0666    -0.7891 C.3          1    LIG   0.0000
   2 O2           2.4028    -1.0507    -0.1966 O.3          1    LIG   0.0000
   3 C3           3.0863    -0.0452     0.3904 C.ar         1    LIG   0.0000
   4 C4           4.4768    -0.0632     0.3796 C.ar         1    LIG   0.0000
   5 C5           5.1644     0.9809     0.9889 C.ar         1    LIG   0.0000
   6 C6           6.6846     0.9727     0.9828 C.3          1    LIG   0.0000
   7 C7           7.1923     0.2472     2.2183 C.3          1    LIG   0.0000
   8 O8           8.6123     0.2396     2.2126 O.3          1    LIG   0.0000
   9 C9           4.4829     2.0282     1.6013 C.ar         1    LIG   0.0000
  10 C10          3.0917     2.0422     1.6090 C.ar         1    LIG   0.0000
  11 C11          2.4004     1.0000     1.0000 C.ar         1    LIG   0.0000
  12 N12          1.0000     1.0000     1.0000 N.pl3        1    LIG   0.0000
  13 C13          0.2650     2.2730     1.0057 C.3          1    LIG   0.0000
  14 C14          0.0114     2.7187    -0.4271 C.2          1    LIG   0.0000
  15 C15         -1.0791     2.3968    -1.1741 C.2          1    LIG   0.0000
  16 C16         -2.1991     1.5754    -0.7568 C.ar         1    LIG   0.0000
  17 C17         -3.4911     1.9378    -1.1245 C.ar         1    LIG   0.0000
  18 C18         -4.5719     1.1564    -0.7289 C.ar         1    LIG   0.0000
  19 C19         -4.3409     0.0167     0.0346 C.ar         1    LIG   0.0000
  20 F20         -5.3696    -0.7349     0.4159 F            1    LIG   0.0000
  21 C21         -3.0529    -0.3532     0.4075 C.ar         1    LIG   0.0000
  22 C22         -1.9782     0.4341     0.0066 C.ar         1    LIG   0.0000
  23 N23         -0.9205     2.9951    -2.3866 N.2          1    LIG   0.0000
  24 C24          0.2223     3.6536    -2.3759 C.2          1    LIG   0.0000
  25 C25          0.8557     4.4253    -3.3822 C.2          1    LIG   0.0000
  26 C26          2.0645     5.0305    -3.1538 C.2          1    LIG   0.0000
  27 C27          2.6848     4.8712    -1.8873 C.2          1    LIG   0.0000
  28 C28          4.0243     5.5518    -1.6440 C.3          1    LIG   0.0000
  29 C29          2.0452     4.1103    -0.9397 C.2          1    LIG   0.0000
  30 N30          0.8335     3.5107    -1.1782 N.pl3        1    LIG   0.0000
  31 H            2.6046    -2.7613    -1.1946 H            1    LIG   0.0000
  32 H            3.7760    -1.6654    -1.5002 H            1    LIG   0.0000
  33 H            3.7756    -2.4884    -0.0897 H            1    LIG   0.0000
  34 H            4.9730    -0.8130    -0.0580 H            1    LIG   0.0000
  35 H            7.0230     1.9137     0.9862 H            1    LIG   0.0000
  36 H            7.0122     0.5037     0.1627 H            1    LIG   0.0000
  37 H            6.8647     0.7163     3.0385 H            1    LIG   0.0000
  38 H            6.8539    -0.6938     2.2149 H            1    LIG   0.0000
  39 H            8.9463    -0.2377     3.0254 H            1    LIG   0.0000
  40 H            4.9929     2.7706     2.0358 H            1    LIG   0.0000
  41 H            2.5952     2.7919     2.0466 H            1    LIG   0.0000
  42 H            0.5000     0.1340     0.9961 H            1    LIG   0.0000
  43 H            0.8054     2.9679     1.4802 H            1    LIG   0.0000
  44 H           -0.6088     2.1514     1.4765 H            1    LIG   0.0000
  45 H           -3.6427     2.7600    -1.6731 H            1    LIG   0.0000
  46 H           -5.5031     1.4107    -0.9901 H            1    LIG   0.0000
  47 H           -2.9013    -1.1749     0.9570 H            1    LIG   0.0000
  48 H           -1.0470     0.1794     0.2673 H            1    LIG   0.0000
  49 H            0.4138     4.5299    -4.2731 H            1    LIG   0.0000
  50 H            2.5024     5.5758    -3.8686 H            1    LIG   0.0000
  51 H            4.2996     6.0494    -2.4665 H            1    LIG   0.0000
  52 H            3.9392     6.1917    -0.8802 H            1    LIG   0.0000
  53 H            4.7140     4.8616    -1.4253 H            1    LIG   0.0000
  54 H            2.4767     3.9889    -0.0458 H            1    LIG   0.0000
@<TRIPOS>BOND
   1        1        2 1
   2        2        3 1
   3        3        4 ar
   4        4        5 ar
   5        5        6 1
   6        6        7 1
   7        7        8 1
   8        5        9 ar
   9        9       10 ar
  10       10       11 ar
  11       11        3 ar
  12       11       12 1
  13       12       13 1
  14       13       14 1
  15       14       15 2
  16       15       16 1
  17       16       17 ar
  18       17       18 ar
  19       18       19 ar
  20       19       20 1
  21       19       21 ar
  22       21       22 ar
  23       22       16 ar
  24       15       23 1
  25       23       24 2
  26       24       25 1
  27       25       26 2
  28       26       27 1
  29       27       28 1
  30       27       29 2
  31       29       30 1
  32       30       14 1
  33       30       24 1
  34        1       31 1
  35        1       32 1
  36        1       33 1
  37        4       34 1
  38        6       35 1
  39        6       36 1
  40        7       37 1
  41        7       38 1
  42        8       39 1
  43        9       40 1
  44       10       41 1
  45       12       42 1
  46       13       43 1
  47       13       44 1
  48       17       45 1
  49       18       46 1
  50       21       47 1
  51       22       48 1
  52       25       49 1
  53       26       50 1
  54       28       51 1
  55       28       52 1
  56       28       53 1
  57       29       54 1

@<TRIPOS>MOLECULE

  54   57
SMALL
USER_CHARGES
@<TRIPOS>ATOM
   1 C1           3.1986    -2.0666    -0.7891 C.3          1    LIG   0.0000
   2 O2           2.4028    -1.0507    -0.1966 O.3          1    LIG   0.0000
   3 C3           3.0863    -0.0452     0.3904 C.ar         1    LIG   0.0000
   4 C4           4.4768    -0.0632     0.3796 C.ar         1    LIG   0.0000
   5 C5           5.1644     0.9809     0.9889 C.ar         1    LIG   0.0000
   6 C6           6.6846     0.9727     0.9828 C.3          1    LIG   0.0000
   7 C7           7.1923     0.2472     2.2183 C.3          1    LIG   0.0000
   8 O8           8.6123     0.2396     2.2126 O.3          1    LIG   0.0000
   9 C9           4.4829     2.0282     1.6013 C.ar         1    LIG   0.0000
  10 C10          3.0917     2.0422     1.6090 C.ar         1    LIG   0.0000
  11 C11          2.4004     1.0000     1.0000 C.ar         1    LIG   0.0000
  12 N12          1.0000     1.0000     1.0000 N.pl3        1    LIG   0.0000
  13 C13          0.2650     2.2730     1.0057 C.3          1    LIG   0.0000
  14 C14          0.0114     2.7187    -0.4271 C.2          1    LIG   0.0000
  15 C15          0.8383     3.5038    -1.1691 C.2          1    LIG   0.0000
  16 C16          2.1072     4.0636    -0.7451 C.ar         1    LIG   0.0000
  17 C17          3.1766     4.0922    -1.6347 C.ar         1    LIG   0.0000
  18 C18          4.3978     4.6269    -1.2372 C.ar         1    LIG   0.0000
  19 C19          4.5305     5.1275     0.0540 C.ar         1    LIG   0.0000
  20 F20          5.6952     5.6403     0.4403 F            1    LIG   0.0000
  21 C21          3.4673     5.1026     0.9504 C.ar         1    LIG   0.0000
  22 C22          2.2496     4.5665     0.5436 C.ar         1    LIG   0.0000
  23 N23          0.2495     3.6613    -2.3865 N.2          1    LIG   0.0000
  24 C24         -0.8907     2.9984    -2.3827 C.2          1    LIG   0.0000
  25 C25         -1.8801     2.8522    -3.3872 C.2          1    LIG   0.0000
  26 C26         -3.0091     2.1068    -3.1651 C.2          1    LIG   0.0000
  27 C27         -3.1819     1.4797    -1.9037 C.2          1    LIG   0.0000
  28 C28         -4.4371     0.6509    -1.6706 C.3          1    LIG   0.0000
  29 C29         -2.2062     1.6500    -0.9524 C.2          1    LIG   0.0000
  30 N30         -1.0782     2.3966    -1.1864 N.pl3        1    LIG   0.0000
  31 H            2.6046    -2.7613    -1.1946 H            1    LIG   0.0000
  32 H            3.7760    -1.6654    -1.5002 H            1    LIG   0.0000
  33 H            3.7756    -2.4884    -0.0897 H            1    LIG   0.0000
  34 H            4.9730    -0.8130    -0.0580 H            1    LIG   0.0000
  35 H            7.0230     1.9137     0.9862 H            1    LIG   0.0000
  36 H            7.0122     0.5037     0.1627 H            1    LIG   0.0000
  37 H            6.8647     0.7163     3.0385 H            1    LIG   0.0000
  38 H            6.8539    -0.6938     2.2149 H            1    LIG   0.0000
  39 H            8.9463    -0.2377     3.0254 H            1    LIG   0.0000
  40 H            4.9929     2.7706     2.0358 H            1    LIG   0.0000
  41 H            2.5952     2.7919     2.0466 H            1    LIG   0.0000
  42 H            0.5000     0.1340     0.9961 H            1    LIG   0.0000
  43 H            0.8054     2.9679     1.4802 H            1    LIG   0.0000
  44 H           -0.6088     2.1514     1.4765 H            1    LIG   0.0000
  45 H            3.0674     3.7284    -2.5597 H            1    LIG   0.0000
  46 H            5.1705     4.6511    -1.8715 H            1    LIG   0.0000
  47 H            3.5767     5.4655     1.8758 H            1    LIG   0.0000
  48 H            1.4768     4.5428     1.1779 H            1    LIG   0.0000
  49 H           -1.7525     3.2999    -4.2722 H            1    LIG   0.0000
  50 H           -3.7002     2.0064    -3.8809 H            1    LIG   0.0000
  51 H           -5.0039     0.6655    -2.4944 H            1    LIG   0.0000
  52 H           -4.1794    -0.2921    -1.4599 H            1    LIG   0.0000
  53 H           -4.9525     1.0348    -0.9045 H            1    LIG   0.0000
  54 H           -2.3213     1.2155    -0.0591 H            1    LIG   0.0000
@<TRIPOS>BOND
   1        1        2 1
   2        2        3 1
   3        3        4 ar
   4        4        5 ar
   5        5        6 1
   6        6        7 1
   7        7        8 1
   8        5        9 ar
   9        9       10 ar
  10       10       11 ar
  11       11        3 ar
  12       11       12 1
  13       12       13 1
  14       13       14 1
  15       14       15 2
  16       15       16 1
  17       16       17 ar
  18       17       18 ar
  19       18       19 ar
  20       19       20 1
  21       19       21 ar
  22       21       22 ar
  23       22       16 ar
  24       15       23 1
  25       23       24 2
  26       24       25 1
  27       25       26 2
  28       26       27 1
  29       27       28 1
  30       27       29 2
  31       29       30 1
  32       30       14 1
  33       30       24 1
  34        1       31 1
  35        1       32 1
  36        1       33 1
  37        4       34 1
  38        6       35 1
  39        6       36 1
  40        7       37 1
  41        7       38 1
  42        8       39 1
  43        9       40 1
  44       10       41 1
  45       12       42 1
  46       13       43 1
  47       13       44 1
  48       17       45 1
  49       18       46 1
  50       21       47 1
  51       22       48 1
  52       25       49 1
  53       26       50 1
  54       28       51 1
  55       28       52 1
  56       28       53 1
  57       29       54 1

@<TRIPOS>MOLECULE

  54   57
SMALL
USER_CHARGES
@<TRIPOS>ATOM
   1 C1           3.1986    -0.7612    -2.0827 C.3          1    LIG   0.0000
   2 O2           2.4028    -0.1777    -1.0616 O.3          1    LIG   0.0000
   3 C3           3.0863     0.3997    -0.0505 C.ar         1    LIG   0.0000
   4 C4           4.4768     0.3894    -0.0689 C.ar         1    LIG   0.0000
   5 C5           5.1644     0.9890     0.9808 C.ar         1    LIG   0.0000
   6 C6           6.6846     0.9850     0.9715 C.3          1    LIG   0.0000
   7 C7           7.1923    -0.2611     1.6787 C.3          1    LIG   0.0000
   8 O8           8.6123    -0.2648     1.6700 O.3          1    LIG   0.0000
   9 C9           4.4829     1.5898     2.0348 C.ar         1    LIG   0.0000
  10 C10          3.0917     1.5981     2.0485 C.ar         1    LIG   0.0000
  11 C11          2.4004     1.0000     1.0000 C.ar         1    LIG   0.0000
  12 N12          1.0000     1.0000     1.0000 N.pl3        1    LIG   0.0000
  13 C13          0.2650     2.2730     1.0057 C.3          1    LIG   0.0000
  14 C14          0.0114     2.7059     2.4423 C.2          1    LIG   0.0000
  15 C15          0.8383     3.4844     3.1913 C.2          1    LIG   0.0000
  16 C16          2.1080     4.0464     2.7729 C.ar         1    LIG   0.0000
  17 C17          3.1746     4.0735     3.6660 C.ar         1    LIG   0.0000
  18 C18          4.3965     4.6108     3.2740 C.ar         1    LIG   0.0000
  19 C19          4.5323     5.1168     1.9853 C.ar         1    LIG   0.0000
  20 F20          5.6977     5.6316     1.6041 F            1    LIG   0.0000
  21 C21          3.4715     5.0946     1.0858 C.ar         1    LIG   0.0000
  22 C22          2.2536     4.5547     1.4866 C.ar         1    LIG   0.0000
  23 N23          0.2455     3.6381     4.4073 N.2          1    LIG   0.0000
  24 C24         -0.8962     2.9777     4.3965 C.2          1    LIG   0.0000
  25 C25         -1.8773     2.8082     5.4055 C.2          1    LIG   0.0000
  26 C26         -3.0068     2.0655     5.1764 C.2          1    LIG   0.0000
  27 C27         -3.1838     1.4571     3.9065 C.2          1    LIG   0.0000
  28 C28         -4.4439     0.6391     3.6626 C.3          1    LIG   0.0000
  29 C29         -2.2087     1.6369     2.9564 C.2          1    LIG   0.0000
  30 N30         -1.0827     2.3849     3.1956 N.pl3        1    LIG   0.0000
  31 H            2.6046    -1.1601    -2.7813 H            1    LIG   0.0000
  32 H            3.7760    -0.0582    -2.4979 H            1    LIG   0.0000
  33 H            3.7756    -1.4762    -1.6879 H            1    LIG   0.0000
  34 H            4.9730    -0.0411    -0.8228 H            1    LIG   0.0000
  35 H            7.0230     1.7982     1.4450 H            1    LIG   0.0000
  36 H            7.0122     0.9888     0.0267 H            1    LIG   0.0000
  37 H            6.8647    -0.2649     2.6235 H            1    LIG   0.0000
  38 H            6.8539    -1.0743     1.2052 H            1    LIG   0.0000
  39 H            8.9463    -1.0846     2.1352 H            1    LIG   0.0000
  40 H            4.9929     2.0155     2.7823 H            1    LIG   0.0000
  41 H            2.5952     2.0285     2.8023 H            1    LIG   0.0000
  42 H            0.5000     0.1340     0.9961 H            1    LIG   0.0000
  43 H           -0.6088     2.1556     0.5337 H            1    LIG   0.0000
  44 H            0.8054     2.9721     0.5374 H            1    LIG   0.0000
  45 H            3.0628     3.7068     4.5896 H            1    LIG   0.0000
  46 H            5.1674     4.6329     3.9106 H            1    LIG   0.0000
  47 H            3.5830     5.4623     0.1625 H            1    LIG   0.0000
  48 H            1.4829     4.5320     0.8498 H            1    LIG   0.0000
  49 H           -1.7435     3.2373     6.2988 H            1    LIG   0.0000
  50 H           -3.6952     1.9542     5.8932 H            1    LIG   0.0000
  51 H           -5.0093     0.6439     4.4874 H            1    LIG   0.0000
  52 H           -4.9584     1.0378     2.9035 H            1    LIG   0.0000
  53 H           -4.1919    -0.3019     3.4367 H            1    LIG   0.0000
  54 H           -2.3227     1.2085     2.0600 H            1    LIG   0.0000
@<TRIPOS>BOND
   1        1        2 1
   2        2        3 1
   3        3        4 ar
   4        4        5 ar
   5        5        6 1
   6        6        7 1
   7        7        8 1
   8        5        9 ar
   9        9       10 ar
  10       10       11 ar
  11       11        3 ar
  12       11       12 1
  13       12       13 1
  14       13       14 1
  15       14       15 2
  16       15       16 1
  17       16       17 ar
  18       17       18 ar
  19       18       19 ar
  20       19       20 1
  21       19       21 ar
  22       21       22 ar
  23       22       16 ar
  24       15       23 1
  25       23       24 2
  26       24       25 1
  27       25       26 2
  28       26       27 1
  29       27       28 1
  30       27       29 2
  31       29       30 1
  32       30       14 1
  33       30       24 1
  34        1       31 1
  35        1       32 1
  36        1       33 1
  37        4       34 1
  38        6       35 1
  39        6       36 1
  40        7       37 1
  41        7       38 1
  42        8       39 1
  43        9       40 1
  44       10       41 1
  45       12       42 1
  46       13       43 1
  47       13       44 1
  48       17       45 1
  49       18       46 1
  50       21       47 1
  51       22       48 1
  52       25       49 1
  53       26       50 1
  54       28       51 1
  55       28       52 1
  56       28       53 1
  57       29       54 1

@<TRIPOS>MOLECULE

  54   57
SMALL
USER_CHARGES
@<TRIPOS>ATOM
   1 C1           3.1986    -0.7612    -2.0827 C.3          1    LIG   0.0000
   2 O2           2.4028    -0.1777    -1.0616 O.3          1    LIG   0.0000
   3 C3           3.0863     0.3997    -0.0505 C.ar         1    LIG   0.0000
   4 C4           4.4768     0.3894    -0.0689 C.ar         1    LIG   0.0000
   5 C5           5.1644     0.9890     0.9808 C.ar         1    LIG   0.0000
   6 C6           6.6846     0.9850     0.9715 C.3          1    LIG   0.0000
   7 C7           7.1923    -0.2611     1.6787 C.3          1    LIG   0.0000
   8 O8           8.6123    -0.2648     1.6700 O.3          1    LIG   0.0000
   9 C9           4.4829     1.5898     2.0348 C.ar         1    LIG   0.0000
  10 C10          3.0917     1.5981     2.0485 C.ar         1    LIG   0.0000
  11 C11          2.4004     1.0000     1.0000 C.ar         1    LIG   0.0000
  12 N12          1.0000     1.0000     1.0000 N.pl3        1    LIG   0.0000
  13 C13          0.2650     2.2730     1.0057 C.3          1    LIG   0.0000
  14 C14          0.0114     2.7059     2.4423 C.2          1    LIG   0.0000
  15 C15         -1.0791     2.3774     3.1864 C.2          1    LIG   0.0000
  16 C16         -2.1999     1.5612     2.7613 C.ar         1    LIG   0.0000
  17 C17         -2.7560     0.6434     3.6468 C.ar         1    LIG   0.0000
  18 C18         -3.8313    -0.1442     3.2482 C.ar         1    LIG   0.0000
  19 C19         -4.3361    -0.0002     1.9600 C.ar         1    LIG   0.0000
  20 F20         -5.3640    -0.7498     1.5726 F            1    LIG   0.0000
  21 C21         -3.7863     0.9141     1.0674 C.ar         1    LIG   0.0000
  22 C22         -2.7117     1.6980     1.4753 C.ar         1    LIG   0.0000
  23 N23         -0.9165     2.9579     4.4071 N.2          1    LIG   0.0000
  24 C24          0.2277     3.6139     4.4032 C.2          1    LIG   0.0000
  25 C25          0.8529     4.3910     5.4106 C.2          1    LIG   0.0000
  26 C26          2.0621     4.9975     5.1878 C.2          1    LIG   0.0000
  27 C27          2.6867     4.8421     3.9229 C.2          1    LIG   0.0000
  28 C28          4.0311     5.5162     3.6892 C.3          1    LIG   0.0000
  29 C29          2.0477     4.0886     2.9691 C.2          1    LIG   0.0000
  30 N30          0.8380     3.4834     3.2036 N.pl3        1    LIG   0.0000
  31 H            2.6046    -1.1601    -2.7813 H            1    LIG   0.0000
  32 H            3.7760    -0.0582    -2.4979 H            1    LIG   0.0000
  33 H            3.7756    -1.4762    -1.6879 H            1    LIG   0.0000
  34 H            4.9730    -0.0411    -0.8228 H            1    LIG   0.0000
  35 H            7.0230     1.7982     1.4450 H            1    LIG   0.0000
  36 H            7.0122     0.9888     0.0267 H            1    LIG   0.0000
  37 H            6.8647    -0.2649     2.6235 H            1    LIG   0.0000
  38 H            6.8539    -1.0743     1.2052 H            1    LIG   0.0000
  39 H            8.9463    -1.0846     2.1352 H            1    LIG   0.0000
  40 H            4.9929     2.0155     2.7823 H            1    LIG   0.0000
  41 H            2.5952     2.0285     2.8023 H            1    LIG   0.0000
  42 H            0.5000     0.1340     0.9961 H            1    LIG   0.0000
  43 H           -0.6088     2.1556     0.5337 H            1    LIG   0.0000
  44 H            0.8054     2.9721     0.5374 H            1    LIG   0.0000
  45 H           -2.3828     0.5499     4.5699 H            1    LIG   0.0000
  46 H           -4.2361    -0.8054     3.8797 H            1    LIG   0.0000
  47 H           -4.1589     1.0069     0.1441 H            1    LIG   0.0000
  48 H           -2.3072     2.3596     0.8440 H            1    LIG   0.0000
  49 H            0.4048     4.4984     6.2980 H            1    LIG   0.0000
  50 H            2.4973     5.5411     5.9055 H            1    LIG   0.0000
  51 H            4.3051     6.0089     4.5152 H            1    LIG   0.0000
  52 H            4.7181     4.8231     3.4712 H            1    LIG   0.0000
  53 H            3.9534     6.1597     2.9276 H            1    LIG   0.0000
  54 H            2.4781     3.9770     2.0733 H            1    LIG   0.0000
@<TRIPOS>BOND
   1        1        2 1
   2        2        3 1
   3        3        4 ar
   4        4        5 ar
   5        5        6 1
   6        6        7 1
   7        7        8 1
   8        5        9 ar
   9        9       10 ar
  10       10       11 ar
  11       11        3 ar
  12       11       12 1
  13       12       13 1
  14       13       14 1
  15       14       15 2
  16       15       16 1
  17       16       17 ar
  18       17       18 ar
  19       18       19 ar
  20       19       20 1
  21       19       21 ar
  22       21       22 ar
  23       22       16 ar
  24       15       23 1
  25       23       24 2
  26       24       25 1
  27       25       26 2
  28       26       27 1
  29       27       28 1
  30       27       29 2
  31       29       30 1
  32       30       14 1
  33       30       24 1
  34        1       31 1
  35        1       32 1
  36        1       33 1
  37        4       34 1
  38        6       35 1
  39        6       36 1
  40        7       37 1
  41        7       38 1
  42        8       39 1
  43        9       40 1
  44       10       41 1
  45       12       42 1
  46       13       43 1
  47       13       44 1
  48       17       45 1
  49       18       46 1
  50       21       47 1
  51       22       48 1
  52       25       49 1
  53       26       50 1
  54       28       51 1
  55       28       52 1
  56       28       53 1
  57       29       54 1

@<TRIPOS>MOLECULE

  54   57
SMALL
USER_CHARGES
@<TRIPOS>ATOM
   1 C1           3.1986    -0.7612    -2.0827 C.3          1    LIG   0.0000
   2 O2           2.4028    -0.1777    -1.0616 O.3          1    LIG   0.0000
   3 C3           3.0863     0.3997    -0.0505 C.ar         1    LIG   0.0000
   4 C4           4.4768     0.3894    -0.0689 C.ar         1    LIG   0.0000
   5 C5           5.1644     0.9890     0.9808 C.ar         1    LIG   0.0000
   6 C6           6.6846     0.9850     0.9715 C.3          1    LIG   0.0000
   7 C7           7.1923    -0.2611     1.6787 C.3          1    LIG   0.0000
   8 O8           8.6123    -0.2648     1.6700 O.3          1    LIG   0.0000
   9 C9           4.4829     1.5898     2.0348 C.ar         1    LIG   0.0000
  10 C10          3.0917     1.5981     2.0485 C.ar         1    LIG   0.0000
  11 C11          2.4004     1.0000     1.0000 C.ar         1    LIG   0.0000
  12 N12          1.0000     1.0000     1.0000 N.pl3        1    LIG   0.0000
  13 C13          0.2650     2.2730     1.0057 C.3          1    LIG   0.0000
  14 C14          0.0114     2.7059     2.4423 C.2          1    LIG   0.0000
  15 C15         -0.6423     3.8364     2.8239 C.2          1    LIG   0.0000
  16 C16         -1.2174     4.8383     1.9472 C.ar         1    LIG   0.0000
  17 C17         -1.1011     6.1855     2.2747 C.ar         1    LIG   0.0000
  18 C18         -1.6497     7.1541     1.4403 C.ar         1    LIG   0.0000
  19 C19         -2.3115     6.7559     0.2832 C.ar         1    LIG   0.0000
  20 F20         -2.8380     7.6767    -0.5190 F            1    LIG   0.0000
  21 C21         -2.4333     5.4115    -0.0521 C.ar         1    LIG   0.0000
  22 C22         -1.8808     4.4501     0.7882 C.ar         1    LIG   0.0000
  23 N23         -0.6565     3.8465     4.1852 N.2          1    LIG   0.0000
  24 C24         -0.0348     2.7647     4.6128 C.2          1    LIG   0.0000
  25 C25          0.2342     2.3104     5.9283 C.2          1    LIG   0.0000
  26 C26          0.9101     1.1378     6.1475 C.2          1    LIG   0.0000
  27 C27          1.3470     0.3771     5.0318 C.2          1    LIG   0.0000
  28 C28          2.0921    -0.9251     5.2878 C.3          1    LIG   0.0000
  29 C29          1.0750     0.8525     3.7725 C.2          1    LIG   0.0000
  30 N30          0.3951     2.0268     3.5643 N.pl3        1    LIG   0.0000
  31 H            2.6046    -1.1601    -2.7813 H            1    LIG   0.0000
  32 H            3.7760    -0.0582    -2.4979 H            1    LIG   0.0000
  33 H            3.7756    -1.4762    -1.6879 H            1    LIG   0.0000
  34 H            4.9730    -0.0411    -0.8228 H            1    LIG   0.0000
  35 H            7.0230     1.7982     1.4450 H            1    LIG   0.0000
  36 H            7.0122     0.9888     0.0267 H            1    LIG   0.0000
  37 H            6.8647    -0.2649     2.6235 H            1    LIG   0.0000
  38 H            6.8539    -1.0743     1.2052 H            1    LIG   0.0000
  39 H            8.9463    -1.0846     2.1352 H            1    LIG   0.0000
  40 H            4.9929     2.0155     2.7823 H            1    LIG   0.0000
  41 H            2.5952     2.0285     2.8023 H            1    LIG   0.0000
  42 H            0.5000     0.1340     0.9961 H            1    LIG   0.0000
  43 H           -0.6088     2.1556     0.5337 H            1    LIG   0.0000
  44 H            0.8054     2.9721     0.5374 H            1    LIG   0.0000
  45 H           -0.6232     6.4576     3.1099 H            1    LIG   0.0000
  46 H           -1.5694     8.1242     1.6693 H            1    LIG   0.0000
  47 H           -2.9121     5.1393    -0.8868 H            1    LIG   0.0000
  48 H           -1.9607     3.4801     0.5589 H            1    LIG   0.0000
  49 H           -0.0740     2.8539     6.7091 H            1    LIG   0.0000
  50 H            1.0925     0.8235     7.0791 H            1    LIG   0.0000
  51 H            2.1765    -1.0727     6.2732 H            1    LIG   0.0000
  52 H            1.5859    -1.6846     4.8791 H            1    LIG   0.0000
  53 H            3.0033    -0.8736     4.8792 H            1    LIG   0.0000
  54 H            1.3826     0.3255     2.9803 H            1    LIG   0.0000
@<TRIPOS>BOND
   1        1        2 1
   2        2        3 1
   3        3        4 ar
   4        4        5 ar
   5        5        6 1
   6        6        7 1
   7        7        8 1
   8        5        9 ar
   9        9       10 ar
  10       10       11 ar
  11       11        3 ar
  12       11       12 1
  13       12       13 1
  14       13       14 1
  15       14       15 2
  16       15       16 1
  17       16       17 ar
  18       17       18 ar
  19       18       19 ar
  20       19       20 1
  21       19       21 ar
  22       21       22 ar
  23       22       16 ar
  24       15       23 1
  25       23       24 2
  26       24       25 1
  27       25       26 2
  28       26       27 1
  29       27       28 1
  30       27       29 2
  31       29       30 1
  32       30       14 1
  33       30       24 1
  34        1       31 1
  35        1       32 1
  36        1       33 1
  37        4       34 1
  38        6       35 1
  39        6       36 1
  40        7       37 1
  41        7       38 1
  42        8       39 1
  43        9       40 1
  44       10       41 1
  45       12       42 1
  46       13       43 1
  47       13       44 1
  48       17       45 1
  49       18       46 1
  50       21       47 1
  51       22       48 1
  52       25       49 1
  53       26       50 1
  54       28       51 1
  55       28       52 1
  56       28       53 1
  57       29       54 1

@<TRIPOS>MOLECULE

  54   57
SMALL
USER_CHARGES
@<TRIPOS>ATOM
   1 C1           3.1986     2.7891    -2.0666 C.3          1    LIG   0.0000
   2 O2           2.4028     2.1966    -1.0507 O.3          1    LIG   0.0000
   3 C3           3.0863     1.6096    -0.0452 C.ar         1    LIG   0.0000
   4 C4           4.4768     1.6204    -0.0632 C.ar         1    LIG   0.0000
   5 C5           5.1644     1.0111     0.9809 C.ar         1    LIG   0.0000
   6 C6           6.6846     1.0172     0.9727 C.3          1    LIG   0.0000
   7 C7           7.1923    -0.2183     0.2472 C.3          1    LIG   0.0000
   8 O8           8.6123    -0.2126     0.2396 O.3          1    LIG   0.0000
   9 C9           4.4829     0.3987     2.0282 C.ar         1    LIG   0.0000
  10 C10          3.0917     0.3910     2.0422 C.ar         1    LIG   0.0000
  11 C11          2.4004     1.0000     1.0000 C.ar         1    LIG   0.0000
  12 N12          1.0000     1.0000     1.0000 N.pl3        1    LIG   0.0000
  13 C13          0.2650     2.2730     1.0057 C.3          1    LIG   0.0000
  14 C14         -1.2311     1.9950     1.0044 C.2          1    LIG   0.0000
  15 C15         -2.0086     1.8456     2.1108 C.2          1    LIG   0.0000
  16 C16         -1.5692     1.9201     3.4908 C.ar         1    LIG   0.0000
  17 C17         -2.3682     2.5614     4.4322 C.ar         1    LIG   0.0000
  18 C18         -1.9552     2.6383     5.7584 C.ar         1    LIG   0.0000
  19 C19         -0.7398     2.0687     6.1239 C.ar         1    LIG   0.0000
  20 F20         -0.3392     2.1385     7.3901 F            1    LIG   0.0000
  21 C21          0.0660     1.4262     5.1898 C.ar         1    LIG   0.0000
  22 C22         -0.3557     1.3537     3.8660 C.ar         1    LIG   0.0000
  23 N23         -3.2781     1.6159     1.6759 N.2          1    LIG   0.0000
  24 C24         -3.2708     1.6247     0.3571 C.2          1    LIG   0.0000
  25 C25         -4.3191     1.4251    -0.5760 C.2          1    LIG   0.0000
  26 C26         -4.0839     1.4752    -1.9258 C.2          1    LIG   0.0000
  27 C27         -2.7648     1.7270    -2.3851 C.2          1    LIG   0.0000
  28 C28         -2.5171     1.7851    -3.8857 C.3          1    LIG   0.0000
  29 C29         -1.7736     1.9078    -1.4520 C.2          1    LIG   0.0000
  30 N30         -2.0206     1.8580    -0.1025 N.pl3        1    LIG   0.0000
  31 H            2.6046     3.1946    -2.7613 H            1    LIG   0.0000
  32 H            3.7760     3.5002    -1.6654 H            1    LIG   0.0000
  33 H            3.7756     2.0897    -2.4884 H            1    LIG   0.0000
  34 H            4.9730     2.0580    -0.8130 H            1    LIG   0.0000
  35 H            7.0230     1.0138     1.9137 H            1    LIG   0.0000
  36 H            7.0122     1.8373     0.5037 H            1    LIG   0.0000
  37 H            6.8647    -1.0385     0.7163 H            1    LIG   0.0000
  38 H            6.8539    -0.2149    -0.6938 H            1    LIG   0.0000
  39 H            8.9463    -1.0254    -0.2377 H            1    LIG   0.0000
  40 H            4.9929    -0.0358     2.7706 H            1    LIG   0.0000
  41 H            2.5952    -0.0466     2.7919 H            1    LIG   0.0000
  42 H            0.5000     0.1340     0.9961 H            1    LIG   0.0000
  43 H            0.5066     2.8011     0.1915 H            1    LIG   0.0000
  44 H            0.5066     2.7938     1.8245 H            1    LIG   0.0000
  45 H           -3.2394     2.9670     4.1554 H            1    LIG   0.0000
  46 H           -2.5248     3.0972     6.4403 H            1    LIG   0.0000
  47 H            0.9377     1.0215     5.4663 H            1    LIG   0.0000
  48 H            0.2137     0.8942     3.1842 H            1    LIG   0.0000
  49 H           -5.2451     1.2448    -0.2444 H            1    LIG   0.0000
  50 H           -4.8303     1.3365    -2.5767 H            1    LIG   0.0000
  51 H           -3.3764     1.6261    -4.3718 H            1    LIG   0.0000
  52 H           -2.1579     2.6860    -4.1296 H            1    LIG   0.0000
  53 H           -1.8542     1.0815    -4.1415 H            1    LIG   0.0000
  54 H           -0.8402     2.0815    -1.7661 H            1    LIG   0.0000
@<TRIPOS>BOND
   1        1        2 1
   2        2        3 1
   3        3        4 ar
   4        4        5 ar
   5        5        6 1
   6        6        7 1
   7        7        8 1
   8        5        9 ar
   9        9       10 ar
  10       10       11 ar
  11       11        3 ar
  12       11       12 1
  13       12       13 1
  14       13       14 1
  15       14       15 2
  16       15       16 1
  17       16       17 ar
  18       17       18 ar
  19       18       19 ar
  20       19       20 1
  21       19       21 ar
  22       21       22 ar
  23       22       16 ar
  24       15       23 1
  25       23       24 2
  26       24       25 1
  27       25       26 2
  28       26       27 1
  29       27       28 1
  30       27       29 2
  31       29       30 1
  32       30       14 1
  33       30       24 1
  34        1       31 1
  35        1       32 1
  36        1       33 1
  37        4       34 1
  38        6       35 1
  39        6       36 1
  40        7       37 1
  41        7       38 1
  42        8       39 1
  43        9       40 1
  44       10       41 1
  45       12       42 1
  46       13       43 1
  47       13       44 1
  48       17       45 1
  49       18       46 1
  50       21       47 1
  51       22       48 1
  52       25       49 1
  53       26       50 1
  54       28       51 1
  55       28       52 1
  56       28       53 1
  57       29       54 1

@<TRIPOS>MOLECULE

  54   57
SMALL
USER_CHARGES
@<TRIPOS>ATOM
   1 C1           3.1986     2.7891    -2.0666 C.3          1    LIG   0.0000
   2 O2           2.4028     2.1966    -1.0507 O.3          1    LIG   0.0000
   3 C3           3.0863     1.6096    -0.0452 C.ar         1    LIG   0.0000
   4 C4           4.4768     1.6204    -0.0632 C.ar         1    LIG   0.0000
   5 C5           5.1644     1.0111     0.9809 C.ar         1    LIG   0.0000
   6 C6           6.6846     1.0172     0.9727 C.3          1    LIG   0.0000
   7 C7           7.1923    -0.2183     0.2472 C.3          1    LIG   0.0000
   8 O8           8.6123    -0.2126     0.2396 O.3          1    LIG   0.0000
   9 C9           4.4829     0.3987     2.0282 C.ar         1    LIG   0.0000
  10 C10          3.0917     0.3910     2.0422 C.ar         1    LIG   0.0000
  11 C11          2.4004     1.0000     1.0000 C.ar         1    LIG   0.0000
  12 N12          1.0000     1.0000     1.0000 N.pl3        1    LIG   0.0000
  13 C13          0.2650     2.2730     1.0057 C.3          1    LIG   0.0000
  14 C14         -1.2311     1.9950     1.0044 C.2          1    LIG   0.0000
  15 C15         -2.0086     1.8554    -0.1032 C.2          1    LIG   0.0000
  16 C16         -1.5695     1.9441    -1.4825 C.ar         1    LIG   0.0000
  17 C17         -2.0833     1.0589    -2.4250 C.ar         1    LIG   0.0000
  18 C18         -1.6681     1.1359    -3.7505 C.ar         1    LIG   0.0000
  19 C19         -0.7380     2.1042    -4.1143 C.ar         1    LIG   0.0000
  20 F20         -0.3370     2.1834    -5.3798 F            1    LIG   0.0000
  21 C21         -0.2183     2.9931    -3.1790 C.ar         1    LIG   0.0000
  22 C22         -0.6400     2.9089    -1.8559 C.ar         1    LIG   0.0000
  23 N23         -3.2765     1.6135     0.3295 N.2          1    LIG   0.0000
  24 C24         -3.2686     1.6075     1.6484 C.2          1    LIG   0.0000
  25 C25         -4.3201     1.4168     2.5798 C.2          1    LIG   0.0000
  26 C26         -4.0848     1.4541     3.9300 C.2          1    LIG   0.0000
  27 C27         -2.7641     1.6930     4.3914 C.2          1    LIG   0.0000
  28 C28         -2.5144     1.7273     5.8924 C.3          1    LIG   0.0000
  29 C29         -1.7726     1.8807     3.4599 C.2          1    LIG   0.0000
  30 N30         -2.0189     1.8388     2.1101 N.pl3        1    LIG   0.0000
  31 H            2.6046     3.1946    -2.7613 H            1    LIG   0.0000
  32 H            3.7760     3.5002    -1.6654 H            1    LIG   0.0000
  33 H            3.7756     2.0897    -2.4884 H            1    LIG   0.0000
  34 H            4.9730     2.0580    -0.8130 H            1    LIG   0.0000
  35 H            7.0230     1.0138     1.9137 H            1    LIG   0.0000
  36 H            7.0122     1.8373     0.5037 H            1    LIG   0.0000
  37 H            6.8647    -1.0385     0.7163 H            1    LIG   0.0000
  38 H            6.8539    -0.2149    -0.6938 H            1    LIG   0.0000
  39 H            8.9463    -1.0254    -0.2377 H            1    LIG   0.0000
  40 H            4.9929    -0.0358     2.7706 H            1    LIG   0.0000
  41 H            2.5952    -0.0466     2.7919 H            1    LIG   0.0000
  42 H            0.5000     0.1340     0.9961 H            1    LIG   0.0000
  43 H            0.5066     2.8011     0.1915 H            1    LIG   0.0000
  44 H            0.5066     2.7938     1.8245 H            1    LIG   0.0000
  45 H           -2.7510     0.3673    -2.1495 H            1    LIG   0.0000
  46 H           -2.0337     0.5032    -4.4332 H            1    LIG   0.0000
  47 H            0.4502     3.6840    -3.4543 H            1    LIG   0.0000
  48 H           -0.2748     3.5420    -1.1734 H            1    LIG   0.0000
  49 H           -5.2486     1.2525     2.2466 H            1    LIG   0.0000
  50 H           -4.8322     1.3152     4.5796 H            1    LIG   0.0000
  51 H           -3.3743     1.5669     6.3771 H            1    LIG   0.0000
  52 H           -1.8560     1.0156     6.1372 H            1    LIG   0.0000
  53 H           -2.1490     2.6221     6.1491 H            1    LIG   0.0000
  54 H           -0.8397     2.0539     3.7756 H            1    LIG   0.0000
@<TRIPOS>BOND
   1        1        2 1
   2        2        3 1
   3        3        4 ar
   4        4        5 ar
   5        5        6 1
   6        6        7 1
   7        7        8 1
   8        5        9 ar
   9        9       10 ar
  10       10       11 ar
  11       11        3 ar
  12       11       12 1
  13       12       13 1
  14       13       14 1
  15       14       15 2
  16       15       16 1
  17       16       17 ar
  18       17       18 ar
  19       18       19 ar
  20       19       20 1
  21       19       21 ar
  22       21       22 ar
  23       22       16 ar
  24       15       23 1
  25       23       24 2
  26       24       25 1
  27       25       26 2
  28       26       27 1
  29       27       28 1
  30       27       29 2
  31       29       30 1
  32       30       14 1
  33       30       24 1
  34        1       31 1
  35        1       32 1
  36        1       33 1
  37        4       34 1
  38        6       35 1
  39        6       36 1
  40        7       37 1
  41        7       38 1
  42        8       39 1
  43        9       40 1
  44       10       41 1
  45       12       42 1
  46       13       43 1
  47       13       44 1
  48       17       45 1
  49       18       46 1
  50       21       47 1
  51       22       48 1
  52       25       49 1
  53       26       50 1
  54       28       51 1
  55       28       52 1
  56       28       53 1
  57       29       54 1

@<TRIPOS>MOLECULE

  54   57
SMALL
USER_CHARGES
@<TRIPOS>ATOM
   1 C1           3.1986     2.7891    -2.0666 C.3          1    LIG   0.0000
   2 O2           2.4028     2.1966    -1.0507 O.3          1    LIG   0.0000
   3 C3           3.0863     1.6096    -0.0452 C.ar         1    LIG   0.0000
   4 C4           4.4768     1.6204    -0.0632 C.ar         1    LIG   0.0000
   5 C5           5.1644     1.0111     0.9809 C.ar         1    LIG   0.0000
   6 C6           6.6846     1.0172     0.9727 C.3          1    LIG   0.0000
   7 C7           7.1902     2.2566     1.6928 C.3          1    LIG   0.0000
   8 O8           8.6102     2.2623     1.6851 O.3          1    LIG   0.0000
   9 C9           4.4829     0.3987     2.0282 C.ar         1    LIG   0.0000
  10 C10          3.0917     0.3910     2.0422 C.ar         1    LIG   0.0000
  11 C11          2.4004     1.0000     1.0000 C.ar         1    LIG   0.0000
  12 N12          1.0000     1.0000     1.0000 N.pl3        1    LIG   0.0000
  13 C13          0.2650     2.2730     1.0057 C.3          1    LIG   0.0000
  14 C14          0.0114     2.7059     2.4423 C.2          1    LIG   0.0000
  15 C15         -1.0791     2.3774     3.1864 C.2          1    LIG   0.0000
  16 C16         -2.1999     1.5612     2.7613 C.ar         1    LIG   0.0000
  17 C17         -3.4908     1.9171     3.1391 C.ar         1    LIG   0.0000
  18 C18         -4.5725     1.1403     2.7364 C.ar         1    LIG   0.0000
  19 C19         -4.3432     0.0111     1.9569 C.ar         1    LIG   0.0000
  20 F20         -5.3727    -0.7356     1.5684 F            1    LIG   0.0000
  21 C21         -3.0562    -0.3529     1.5749 C.ar         1    LIG   0.0000
  22 C22         -1.9808     0.4305     1.9818 C.ar         1    LIG   0.0000
  23 N23         -0.9165     2.9579     4.4071 N.2          1    LIG   0.0000
  24 C24          0.2277     3.6139     4.4032 C.2          1    LIG   0.0000
  25 C25          0.8529     4.3910     5.4106 C.2          1    LIG   0.0000
  26 C26          2.0621     4.9975     5.1878 C.2          1    LIG   0.0000
  27 C27          2.6867     4.8421     3.9229 C.2          1    LIG   0.0000
  28 C28          4.0311     5.5162     3.6892 C.3          1    LIG   0.0000
  29 C29          2.0477     4.0886     2.9691 C.2          1    LIG   0.0000
  30 N30          0.8380     3.4834     3.2036 N.pl3        1    LIG   0.0000
  31 H            2.6046     3.1946    -2.7613 H            1    LIG   0.0000
  32 H            3.7760     3.5002    -1.6654 H            1    LIG   0.0000
  33 H            3.7756     2.0897    -2.4884 H            1    LIG   0.0000
  34 H            4.9730     2.0580    -0.8130 H            1    LIG   0.0000
  35 H            7.0128     1.0232     0.0282 H            1    LIG   0.0000
  36 H            7.0237     0.1996     1.4382 H            1    LIG   0.0000
  37 H            6.8511     3.0741     1.2273 H            1    LIG   0.0000
  38 H            6.8620     2.2506     2.6373 H            1    LIG   0.0000
  39 H            8.9428     3.0777     2.1589 H            1    LIG   0.0000
  40 H            4.9929    -0.0358     2.7706 H            1    LIG   0.0000
  41 H            2.5952    -0.0466     2.7919 H            1    LIG   0.0000
  42 H            0.5000     0.1340     0.9961 H            1    LIG   0.0000
  43 H           -0.6088     2.1556     0.5337 H            1    LIG   0.0000
  44 H            0.8054     2.9721     0.5374 H            1    LIG   0.0000
  45 H           -3.6412     2.7311     3.7000 H            1    LIG   0.0000
  46 H           -5.5030     1.3906     3.0038 H            1    LIG   0.0000
  47 H           -2.9057    -1.1675     1.0148 H            1    LIG   0.0000
  48 H           -1.0504     0.1805     1.7138 H            1    LIG   0.0000
  49 H            0.4048     4.4984     6.2980 H            1    LIG   0.0000
  50 H            2.4973     5.5411     5.9055 H            1    LIG   0.0000
  51 H            4.3051     6.0089     4.5152 H            1    LIG   0.0000
  52 H            4.7181     4.8231     3.4712 H            1    LIG   0.0000
  53 H            3.9534     6.1597     2.9276 H            1    LIG   0.0000
  54 H            2.4781     3.9770     2.0733 H            1    LIG   0.0000
@<TRIPOS>BOND
   1        1        2 1
   2        2        3 1
   3        3        4 ar
   4        4        5 ar
   5        5        6 1
   6        6        7 1
   7        7        8 1
   8        5        9 ar
   9        9       10 ar
  10       10       11 ar
  11       11        3 ar
  12       11       12 1
  13       12       13 1
  14       13       14 1
  15       14       15 2
  16       15       16 1
  17       16       17 ar
  18       17       18 ar
  19       18       19 ar
  20       19       20 1
  21       19       21 ar
  22       21       22 ar
  23       22       16 ar
  24       15       23 1
  25       23       24 2
  26       24       25 1
  27       25       26 2
  28       26       27 1
  29       27       28 1
  30       27       29 2
  31       29       30 1
  32       30       14 1
  33       30       24 1
  34        1       31 1
  35        1       32 1
  36        1       33 1
  37        4       34 1
  38        6       35 1
  39        6       36 1
  40        7       37 1
  41        7       38 1
  42        8       39 1
  43        9       40 1
  44       10       41 1
  45       12       42 1
  46       13       43 1
  47       13       44 1
  48       17       45 1
  49       18       46 1
  50       21       47 1
  51       22       48 1
  52       25       49 1
  53       26       50 1
  54       28       51 1
  55       28       52 1
  56       28       53 1
  57       29       54 1

