@<TRIPOS>MOLECULE
*****
 54 57 0 0 0
SMALL
USER_CHARGES

@<TRIPOS>ATOM
      1 C1          3.1986   -2.5503    0.9839 C.3     1  LIG1        0.0000
      2 O2          2.4028   -1.3742    0.9891 O.3     1  LIG1        0.0000
      3 C3          3.0863   -0.2100    0.9946 C.ar    1  LIG1        0.0000
      4 C4          4.4768   -0.2309    0.9944 C.ar    1  LIG1        0.0000
      5 C5          5.1644    0.9779    0.9999 C.ar    1  LIG1        0.0000
      6 C6          6.6846    0.9678    0.9988 C.3     1  LIG1        0.0000
      7 C7          7.1923    0.9572    2.4314 C.3     1  LIG1        0.0000
      8 O8          8.6123    0.9478    2.4304 O.3     1  LIG1        0.0000
      9 C9          4.4829    2.1911    1.0066 C.ar    1  LIG1        0.0000
     10 C10         3.0917    2.2071    1.0063 C.ar    1  LIG1        0.0000
     11 C11         2.4004    1.0000    1.0000 C.ar    1  LIG1        0.0000
     12 N12         1.0000    1.0000    1.0000 N.pl3   1  LIG1        0.0000
     13 C13         0.2650    2.2730    1.0057 C.3     1  LIG1        0.0000
     14 C14         0.0114    2.7059    2.4423 C.2     1  LIG1        0.0000
     15 C15        -0.6423    3.8364    2.8239 C.2     1  LIG1        0.0000
     16 C16        -1.2174    4.8383    1.9472 C.ar    1  LIG1        0.0000
     17 C17        -2.4471    5.4056    2.2664 C.ar    1  LIG1        0.0000
     18 C18        -3.0071    6.3674    1.4316 C.ar    1  LIG1        0.0000
     19 C19        -2.3228    6.7483    0.2819 C.ar    1  LIG1        0.0000
     20 F20        -2.8524    7.6673   -0.5203 F       1  LIG1        0.0000
     21 C21        -1.0933    6.1863   -0.0458 C.ar    1  LIG1        0.0000
     22 C22        -0.5409    5.2257    0.7956 C.ar    1  LIG1        0.0000
     23 N23        -0.6565    3.8465    4.1852 N.2     1  LIG1        0.0000
     24 C24        -0.0348    2.7647    4.6128 C.2     1  LIG1        0.0000
     25 C25         0.2342    2.3104    5.9283 C.2     1  LIG1        0.0000
     26 C26         0.9101    1.1378    6.1475 C.2     1  LIG1        0.0000
     27 C27         1.3470    0.3771    5.0318 C.2     1  LIG1        0.0000
     28 C28         2.0921   -0.9251    5.2878 C.3     1  LIG1        0.0000
     29 C29         1.0750    0.8525    3.7725 C.2     1  LIG1        0.0000
     30 N30         0.3951    2.0268    3.5643 N.pl3   1  LIG1        0.0000
     31 H           2.6046   -3.3547    0.9800 H       1  LIG1        0.0000
     32 H           3.7760   -2.5584    0.1675 H       1  LIG1        0.0000
     33 H           3.7756   -2.5659    1.8005 H       1  LIG1        0.0000
     34 H           4.9730   -1.0991    0.9902 H       1  LIG1        0.0000
     35 H           7.0230    1.7844    0.5312 H       1  LIG1        0.0000
     36 H           7.0122    0.1515    0.5230 H       1  LIG1        0.0000
     37 H           6.8647    1.7735    2.9072 H       1  LIG1        0.0000
     38 H           6.8539    0.1406    2.8990 H       1  LIG1        0.0000
     39 H           8.9463    0.9408    3.3729 H       1  LIG1        0.0000
     40 H           4.9929    3.0512    1.0117 H       1  LIG1        0.0000
     41 H           2.5952    3.0751    1.0104 H       1  LIG1        0.0000
     42 H           0.5000    0.1340    0.9961 H       1  LIG1        0.0000
     43 H          -0.6088    2.1556    0.5337 H       1  LIG1        0.0000
     44 H           0.8054    2.9721    0.5374 H       1  LIG1        0.0000
     45 H          -2.9284    5.1221    3.0958 H       1  LIG1        0.0000
     46 H          -3.8903    6.7796    1.6552 H       1  LIG1        0.0000
     47 H          -0.6125    6.4691   -0.8757 H       1  LIG1        0.0000
     48 H           0.3426    4.8139    0.5722 H       1  LIG1        0.0000
     49 H          -0.0740    2.8539    6.7091 H       1  LIG1        0.0000
     50 H           1.0925    0.8235    7.0791 H       1  LIG1        0.0000
     51 H           2.1765   -1.0727    6.2732 H       1  LIG1        0.0000
     52 H           1.5859   -1.6846    4.8791 H       1  LIG1        0.0000
     53 H           3.0033   -0.8736    4.8792 H       1  LIG1        0.0000
     54 H           1.3826    0.3255    2.9803 H       1  LIG1        0.0000
@<TRIPOS>BOND
     1     1     2    1
     2     2     3    1
     3     3     4   ar
     4     4     5   ar
     5     5     6    1
     6     6     7    1
     7     7     8    1
     8     5     9   ar
     9     9    10   ar
    10    10    11   ar
    11    11     3   ar
    12    11    12    1
    13    12    13    1
    14    13    14    1
    15    14    15    2
    16    15    16    1
    17    16    17   ar
    18    17    18   ar
    19    18    19   ar
    20    19    20    1
    21    19    21   ar
    22    21    22   ar
    23    22    16   ar
    24    15    23    1
    25    23    24    2
    26    24    25    1
    27    25    26    2
    28    26    27    1
    29    27    28    1
    30    27    29    2
    31    29    30    1
    32    30    14    1
    33    30    24    1
    34     1    31    1
    35     1    32    1
    36     1    33    1
    37     4    34    1
    38     6    35    1
    39     6    36    1
    40     7    37    1
    41     7    38    1
    42     8    39    1
    43     9    40    1
    44    10    41    1
    45    12    42    1
    46    13    43    1
    47    13    44    1
    48    17    45    1
    49    18    46    1
    50    21    47    1
    51    22    48    1
    52    25    49    1
    53    26    50    1
    54    28    51    1
    55    28    52    1
    56    28    53    1
    57    29    54    1
