@<TRIPOS>MOLECULE
*****
 54 57 0 0 0
SMALL
USER_CHARGES

@<TRIPOS>ATOM
      1 C1          3.1986   -2.0827    2.7612 C.3     1  LIG1        0.0000
      2 O2          2.4028   -1.0616    2.1777 O.3     1  LIG1        0.0000
      3 C3          3.0863   -0.0505    1.6003 C.ar    1  LIG1        0.0000
      4 C4          4.4768   -0.0689    1.6106 C.ar    1  LIG1        0.0000
      5 C5          5.1644    0.9808    1.0110 C.ar    1  LIG1        0.0000
      6 C6          6.6846    0.9715    1.0150 C.3     1  LIG1        0.0000
      7 C7          7.1923    1.6787    2.2611 C.3     1  LIG1        0.0000
      8 O8          8.6123    1.6700    2.2648 O.3     1  LIG1        0.0000
      9 C9          4.4829    2.0348    0.4102 C.ar    1  LIG1        0.0000
     10 C10         3.0917    2.0485    0.4019 C.ar    1  LIG1        0.0000
     11 C11         2.4004    1.0000    1.0000 C.ar    1  LIG1        0.0000
     12 N12         1.0000    1.0000    1.0000 N.pl3   1  LIG1        0.0000
     13 C13         0.2650    2.2730    1.0057 C.3     1  LIG1        0.0000
     14 C14         0.0114    2.7059    2.4423 C.2     1  LIG1        0.0000
     15 C15         0.8383    3.4844    3.1913 C.2     1  LIG1        0.0000
     16 C16         2.1080    4.0464    2.7729 C.ar    1  LIG1        0.0000
     17 C17         3.1746    4.0735    3.6660 C.ar    1  LIG1        0.0000
     18 C18         4.3965    4.6108    3.2740 C.ar    1  LIG1        0.0000
     19 C19         4.5323    5.1168    1.9853 C.ar    1  LIG1        0.0000
     20 F20         5.6977    5.6316    1.6041 F       1  LIG1        0.0000
     21 C21         3.4715    5.0946    1.0858 C.ar    1  LIG1        0.0000
     22 C22         2.2536    4.5547    1.4866 C.ar    1  LIG1        0.0000
     23 N23         0.2455    3.6381    4.4073 N.2     1  LIG1        0.0000
     24 C24        -0.8962    2.9777    4.3965 C.2     1  LIG1        0.0000
     25 C25        -1.8773    2.8082    5.4055 C.2     1  LIG1        0.0000
     26 C26        -3.0068    2.0655    5.1764 C.2     1  LIG1        0.0000
     27 C27        -3.1838    1.4571    3.9065 C.2     1  LIG1        0.0000
     28 C28        -4.4439    0.6391    3.6626 C.3     1  LIG1        0.0000
     29 C29        -2.2087    1.6369    2.9564 C.2     1  LIG1        0.0000
     30 N30        -1.0827    2.3849    3.1956 N.pl3   1  LIG1        0.0000
     31 H           2.6046   -2.7813    3.1601 H       1  LIG1        0.0000
     32 H           3.7760   -2.4979    2.0582 H       1  LIG1        0.0000
     33 H           3.7756   -1.6879    3.4762 H       1  LIG1        0.0000
     34 H           4.9730   -0.8228    2.0411 H       1  LIG1        0.0000
     35 H           7.0230    1.4450    0.2018 H       1  LIG1        0.0000
     36 H           7.0122    0.0267    1.0112 H       1  LIG1        0.0000
     37 H           6.8647    2.6235    2.2649 H       1  LIG1        0.0000
     38 H           6.8539    1.2052    3.0743 H       1  LIG1        0.0000
     39 H           8.9463    2.1352    3.0846 H       1  LIG1        0.0000
     40 H           4.9929    2.7823   -0.0155 H       1  LIG1        0.0000
     41 H           2.5952    2.8023   -0.0285 H       1  LIG1        0.0000
     42 H           0.5000    0.1340    0.9961 H       1  LIG1        0.0000
     43 H          -0.6088    2.1556    0.5337 H       1  LIG1        0.0000
     44 H           0.8054    2.9721    0.5374 H       1  LIG1        0.0000
     45 H           3.0628    3.7068    4.5896 H       1  LIG1        0.0000
     46 H           5.1674    4.6329    3.9106 H       1  LIG1        0.0000
     47 H           3.5830    5.4623    0.1625 H       1  LIG1        0.0000
     48 H           1.4829    4.5320    0.8498 H       1  LIG1        0.0000
     49 H          -1.7435    3.2373    6.2988 H       1  LIG1        0.0000
     50 H          -3.6952    1.9542    5.8932 H       1  LIG1        0.0000
     51 H          -5.0093    0.6439    4.4874 H       1  LIG1        0.0000
     52 H          -4.9584    1.0378    2.9035 H       1  LIG1        0.0000
     53 H          -4.1919   -0.3019    3.4367 H       1  LIG1        0.0000
     54 H          -2.3227    1.2085    2.0600 H       1  LIG1        0.0000
@<TRIPOS>BOND
     1     1     2    1
     2     2     3    1
     3     3     4   ar
     4     4     5   ar
     5     5     6    1
     6     6     7    1
     7     7     8    1
     8     5     9   ar
     9     9    10   ar
    10    10    11   ar
    11    11     3   ar
    12    11    12    1
    13    12    13    1
    14    13    14    1
    15    14    15    2
    16    15    16    1
    17    16    17   ar
    18    17    18   ar
    19    18    19   ar
    20    19    20    1
    21    19    21   ar
    22    21    22   ar
    23    22    16   ar
    24    15    23    1
    25    23    24    2
    26    24    25    1
    27    25    26    2
    28    26    27    1
    29    27    28    1
    30    27    29    2
    31    29    30    1
    32    30    14    1
    33    30    24    1
    34     1    31    1
    35     1    32    1
    36     1    33    1
    37     4    34    1
    38     6    35    1
    39     6    36    1
    40     7    37    1
    41     7    38    1
    42     8    39    1
    43     9    40    1
    44    10    41    1
    45    12    42    1
    46    13    43    1
    47    13    44    1
    48    17    45    1
    49    18    46    1
    50    21    47    1
    51    22    48    1
    52    25    49    1
    53    26    50    1
    54    28    51    1
    55    28    52    1
    56    28    53    1
    57    29    54    1
