@<TRIPOS>MOLECULE
*****
 54 57 0 0 0
SMALL
USER_CHARGES

@<TRIPOS>ATOM
      1 C1          3.1986   -2.0827    2.7612 C.3     1  LIG1        0.0000
      2 O2          2.4028   -1.0616    2.1777 O.3     1  LIG1        0.0000
      3 C3          3.0863   -0.0505    1.6003 C.ar    1  LIG1        0.0000
      4 C4          4.4768   -0.0689    1.6106 C.ar    1  LIG1        0.0000
      5 C5          5.1644    0.9808    1.0110 C.ar    1  LIG1        0.0000
      6 C6          6.6846    0.9715    1.0150 C.3     1  LIG1        0.0000
      7 C7          7.1923    1.6787    2.2611 C.3     1  LIG1        0.0000
      8 O8          8.6123    1.6700    2.2648 O.3     1  LIG1        0.0000
      9 C9          4.4829    2.0348    0.4102 C.ar    1  LIG1        0.0000
     10 C10         3.0917    2.0485    0.4019 C.ar    1  LIG1        0.0000
     11 C11         2.4004    1.0000    1.0000 C.ar    1  LIG1        0.0000
     12 N12         1.0000    1.0000    1.0000 N.pl3   1  LIG1        0.0000
     13 C13         0.2650    2.2730    1.0057 C.3     1  LIG1        0.0000
     14 C14         0.0114    2.7059    2.4423 C.2     1  LIG1        0.0000
     15 C15        -1.0791    2.3774    3.1864 C.2     1  LIG1        0.0000
     16 C16        -2.1999    1.5612    2.7613 C.ar    1  LIG1        0.0000
     17 C17        -2.7560    0.6434    3.6468 C.ar    1  LIG1        0.0000
     18 C18        -3.8313   -0.1442    3.2482 C.ar    1  LIG1        0.0000
     19 C19        -4.3361   -0.0002    1.9600 C.ar    1  LIG1        0.0000
     20 F20        -5.3640   -0.7498    1.5726 F       1  LIG1        0.0000
     21 C21        -3.7863    0.9141    1.0674 C.ar    1  LIG1        0.0000
     22 C22        -2.7117    1.6980    1.4753 C.ar    1  LIG1        0.0000
     23 N23        -0.9165    2.9579    4.4071 N.2     1  LIG1        0.0000
     24 C24         0.2277    3.6139    4.4032 C.2     1  LIG1        0.0000
     25 C25         0.8529    4.3910    5.4106 C.2     1  LIG1        0.0000
     26 C26         2.0621    4.9975    5.1878 C.2     1  LIG1        0.0000
     27 C27         2.6867    4.8421    3.9229 C.2     1  LIG1        0.0000
     28 C28         4.0311    5.5162    3.6892 C.3     1  LIG1        0.0000
     29 C29         2.0477    4.0886    2.9691 C.2     1  LIG1        0.0000
     30 N30         0.8380    3.4834    3.2036 N.pl3   1  LIG1        0.0000
     31 H           2.6046   -2.7813    3.1601 H       1  LIG1        0.0000
     32 H           3.7760   -2.4979    2.0582 H       1  LIG1        0.0000
     33 H           3.7756   -1.6879    3.4762 H       1  LIG1        0.0000
     34 H           4.9730   -0.8228    2.0411 H       1  LIG1        0.0000
     35 H           7.0230    1.4450    0.2018 H       1  LIG1        0.0000
     36 H           7.0122    0.0267    1.0112 H       1  LIG1        0.0000
     37 H           6.8647    2.6235    2.2649 H       1  LIG1        0.0000
     38 H           6.8539    1.2052    3.0743 H       1  LIG1        0.0000
     39 H           8.9463    2.1352    3.0846 H       1  LIG1        0.0000
     40 H           4.9929    2.7823   -0.0155 H       1  LIG1        0.0000
     41 H           2.5952    2.8023   -0.0285 H       1  LIG1        0.0000
     42 H           0.5000    0.1340    0.9961 H       1  LIG1        0.0000
     43 H          -0.6088    2.1556    0.5337 H       1  LIG1        0.0000
     44 H           0.8054    2.9721    0.5374 H       1  LIG1        0.0000
     45 H          -2.3828    0.5499    4.5699 H       1  LIG1        0.0000
     46 H          -4.2361   -0.8054    3.8797 H       1  LIG1        0.0000
     47 H          -4.1589    1.0069    0.1441 H       1  LIG1        0.0000
     48 H          -2.3072    2.3596    0.8440 H       1  LIG1        0.0000
     49 H           0.4048    4.4984    6.2980 H       1  LIG1        0.0000
     50 H           2.4973    5.5411    5.9055 H       1  LIG1        0.0000
     51 H           4.3051    6.0089    4.5152 H       1  LIG1        0.0000
     52 H           4.7181    4.8231    3.4712 H       1  LIG1        0.0000
     53 H           3.9534    6.1597    2.9276 H       1  LIG1        0.0000
     54 H           2.4781    3.9770    2.0733 H       1  LIG1        0.0000
@<TRIPOS>BOND
     1     1     2    1
     2     2     3    1
     3     3     4   ar
     4     4     5   ar
     5     5     6    1
     6     6     7    1
     7     7     8    1
     8     5     9   ar
     9     9    10   ar
    10    10    11   ar
    11    11     3   ar
    12    11    12    1
    13    12    13    1
    14    13    14    1
    15    14    15    2
    16    15    16    1
    17    16    17   ar
    18    17    18   ar
    19    18    19   ar
    20    19    20    1
    21    19    21   ar
    22    21    22   ar
    23    22    16   ar
    24    15    23    1
    25    23    24    2
    26    24    25    1
    27    25    26    2
    28    26    27    1
    29    27    28    1
    30    27    29    2
    31    29    30    1
    32    30    14    1
    33    30    24    1
    34     1    31    1
    35     1    32    1
    36     1    33    1
    37     4    34    1
    38     6    35    1
    39     6    36    1
    40     7    37    1
    41     7    38    1
    42     8    39    1
    43     9    40    1
    44    10    41    1
    45    12    42    1
    46    13    43    1
    47    13    44    1
    48    17    45    1
    49    18    46    1
    50    21    47    1
    51    22    48    1
    52    25    49    1
    53    26    50    1
    54    28    51    1
    55    28    52    1
    56    28    53    1
    57    29    54    1
