@<TRIPOS>MOLECULE
*****
 54 57 0 0 0
SMALL
USER_CHARGES

@<TRIPOS>ATOM
      1 C1          3.1986   -2.5503    0.9839 C.3     1  LIG1        0.0000
      2 O2          2.4028   -1.3742    0.9891 O.3     1  LIG1        0.0000
      3 C3          3.0863   -0.2100    0.9946 C.ar    1  LIG1        0.0000
      4 C4          4.4768   -0.2309    0.9944 C.ar    1  LIG1        0.0000
      5 C5          5.1644    0.9779    0.9999 C.ar    1  LIG1        0.0000
      6 C6          6.6846    0.9678    0.9988 C.3     1  LIG1        0.0000
      7 C7          7.1923    0.9572    2.4314 C.3     1  LIG1        0.0000
      8 O8          8.6123    0.9478    2.4304 O.3     1  LIG1        0.0000
      9 C9          4.4829    2.1911    1.0066 C.ar    1  LIG1        0.0000
     10 C10         3.0917    2.2071    1.0063 C.ar    1  LIG1        0.0000
     11 C11         2.4004    1.0000    1.0000 C.ar    1  LIG1        0.0000
     12 N12         1.0000    1.0000    1.0000 N.pl3   1  LIG1        0.0000
     13 C13         0.2650    2.2730    1.0057 C.3     1  LIG1        0.0000
     14 C14         0.0114    2.7187   -0.4271 C.2     1  LIG1        0.0000
     15 C15        -0.6423    3.8525   -0.7986 C.2     1  LIG1        0.0000
     16 C16        -1.2190    4.8457    0.0869 C.ar    1  LIG1        0.0000
     17 C17        -1.0967    6.1964   -0.2237 C.ar    1  LIG1        0.0000
     18 C18        -1.6464    7.1566    0.6197 C.ar    1  LIG1        0.0000
     19 C19        -2.3139    6.7468    1.7693 C.ar    1  LIG1        0.0000
     20 F20        -2.8419    7.6595    2.5796 F       1  LIG1        0.0000
     21 C21        -2.4407    5.3988    2.0884 C.ar    1  LIG1        0.0000
     22 C22        -1.8883    4.4458    1.2386 C.ar    1  LIG1        0.0000
     23 N23        -0.6491    3.8790   -2.1597 N.2     1  LIG1        0.0000
     24 C24        -0.0248    2.8026   -2.5969 C.2     1  LIG1        0.0000
     25 C25         0.2291    2.3512   -3.9164 C.2     1  LIG1        0.0000
     26 C26         0.9057    1.1811   -4.1460 C.2     1  LIG1        0.0000
     27 C27         1.3504    0.4150   -3.0372 C.2     1  LIG1        0.0000
     28 C28         2.1046   -0.8796   -3.3047 C.3     1  LIG1        0.0000
     29 C29         1.0795    0.8798   -1.7736 C.2     1  LIG1        0.0000
     30 N30         0.4033    2.0544   -1.5551 N.pl3   1  LIG1        0.0000
     31 H           2.6046   -3.3547    0.9800 H       1  LIG1        0.0000
     32 H           3.7760   -2.5584    0.1675 H       1  LIG1        0.0000
     33 H           3.7756   -2.5659    1.8005 H       1  LIG1        0.0000
     34 H           4.9730   -1.0991    0.9902 H       1  LIG1        0.0000
     35 H           7.0230    1.7844    0.5312 H       1  LIG1        0.0000
     36 H           7.0122    0.1515    0.5230 H       1  LIG1        0.0000
     37 H           6.8647    1.7735    2.9072 H       1  LIG1        0.0000
     38 H           6.8539    0.1406    2.8990 H       1  LIG1        0.0000
     39 H           8.9463    0.9408    3.3729 H       1  LIG1        0.0000
     40 H           4.9929    3.0512    1.0117 H       1  LIG1        0.0000
     41 H           2.5952    3.0751    1.0104 H       1  LIG1        0.0000
     42 H           0.5000    0.1340    0.9961 H       1  LIG1        0.0000
     43 H           0.8054    2.9679    1.4802 H       1  LIG1        0.0000
     44 H          -0.6088    2.1514    1.4765 H       1  LIG1        0.0000
     45 H          -0.6137    6.4769   -1.0531 H       1  LIG1        0.0000
     46 H          -1.5627    8.1291    0.4022 H       1  LIG1        0.0000
     47 H          -2.9228    5.1183    2.9184 H       1  LIG1        0.0000
     48 H          -1.9726    3.4733    1.4558 H       1  LIG1        0.0000
     49 H          -0.0905    2.8951   -4.6924 H       1  LIG1        0.0000
     50 H           1.0832    0.8722   -5.0804 H       1  LIG1        0.0000
     51 H           2.1865   -1.0199   -4.2915 H       1  LIG1        0.0000
     52 H           3.0170   -0.8238   -2.8992 H       1  LIG1        0.0000
     53 H           1.6060   -1.6458   -2.8993 H       1  LIG1        0.0000
     54 H           1.3852    0.3446   -0.9862 H       1  LIG1        0.0000
@<TRIPOS>BOND
     1     1     2    1
     2     2     3    1
     3     3     4   ar
     4     4     5   ar
     5     5     6    1
     6     6     7    1
     7     7     8    1
     8     5     9   ar
     9     9    10   ar
    10    10    11   ar
    11    11     3   ar
    12    11    12    1
    13    12    13    1
    14    13    14    1
    15    14    15    2
    16    15    16    1
    17    16    17   ar
    18    17    18   ar
    19    18    19   ar
    20    19    20    1
    21    19    21   ar
    22    21    22   ar
    23    22    16   ar
    24    15    23    1
    25    23    24    2
    26    24    25    1
    27    25    26    2
    28    26    27    1
    29    27    28    1
    30    27    29    2
    31    29    30    1
    32    30    14    1
    33    30    24    1
    34     1    31    1
    35     1    32    1
    36     1    33    1
    37     4    34    1
    38     6    35    1
    39     6    36    1
    40     7    37    1
    41     7    38    1
    42     8    39    1
    43     9    40    1
    44    10    41    1
    45    12    42    1
    46    13    43    1
    47    13    44    1
    48    17    45    1
    49    18    46    1
    50    21    47    1
    51    22    48    1
    52    25    49    1
    53    26    50    1
    54    28    51    1
    55    28    52    1
    56    28    53    1
    57    29    54    1
