@<TRIPOS>MOLECULE
*****
 54 57 0 0 0
SMALL
USER_CHARGES

@<TRIPOS>ATOM
      1 C1          3.1986    2.7891   -2.0666 C.3     1  LIG1        0.0000
      2 O2          2.4028    2.1966   -1.0507 O.3     1  LIG1        0.0000
      3 C3          3.0863    1.6096   -0.0452 C.ar    1  LIG1        0.0000
      4 C4          4.4768    1.6204   -0.0632 C.ar    1  LIG1        0.0000
      5 C5          5.1644    1.0111    0.9809 C.ar    1  LIG1        0.0000
      6 C6          6.6846    1.0172    0.9727 C.3     1  LIG1        0.0000
      7 C7          7.1923   -0.2183    0.2472 C.3     1  LIG1        0.0000
      8 O8          8.6123   -0.2126    0.2396 O.3     1  LIG1        0.0000
      9 C9          4.4829    0.3987    2.0282 C.ar    1  LIG1        0.0000
     10 C10         3.0917    0.3910    2.0422 C.ar    1  LIG1        0.0000
     11 C11         2.4004    1.0000    1.0000 C.ar    1  LIG1        0.0000
     12 N12         1.0000    1.0000    1.0000 N.pl3   1  LIG1        0.0000
     13 C13         0.2650    2.2730    1.0057 C.3     1  LIG1        0.0000
     14 C14        -1.2311    1.9950    1.0044 C.2     1  LIG1        0.0000
     15 C15        -2.0086    1.8456    2.1108 C.2     1  LIG1        0.0000
     16 C16        -1.5692    1.9201    3.4908 C.ar    1  LIG1        0.0000
     17 C17        -2.3682    2.5614    4.4322 C.ar    1  LIG1        0.0000
     18 C18        -1.9552    2.6383    5.7584 C.ar    1  LIG1        0.0000
     19 C19        -0.7398    2.0687    6.1239 C.ar    1  LIG1        0.0000
     20 F20        -0.3392    2.1385    7.3901 F       1  LIG1        0.0000
     21 C21         0.0660    1.4262    5.1898 C.ar    1  LIG1        0.0000
     22 C22        -0.3557    1.3537    3.8660 C.ar    1  LIG1        0.0000
     23 N23        -3.2781    1.6159    1.6759 N.2     1  LIG1        0.0000
     24 C24        -3.2708    1.6247    0.3571 C.2     1  LIG1        0.0000
     25 C25        -4.3191    1.4251   -0.5760 C.2     1  LIG1        0.0000
     26 C26        -4.0839    1.4752   -1.9258 C.2     1  LIG1        0.0000
     27 C27        -2.7648    1.7270   -2.3851 C.2     1  LIG1        0.0000
     28 C28        -2.5171    1.7851   -3.8857 C.3     1  LIG1        0.0000
     29 C29        -1.7736    1.9078   -1.4520 C.2     1  LIG1        0.0000
     30 N30        -2.0206    1.8580   -0.1025 N.pl3   1  LIG1        0.0000
     31 H           2.6046    3.1946   -2.7613 H       1  LIG1        0.0000
     32 H           3.7760    3.5002   -1.6654 H       1  LIG1        0.0000
     33 H           3.7756    2.0897   -2.4884 H       1  LIG1        0.0000
     34 H           4.9730    2.0580   -0.8130 H       1  LIG1        0.0000
     35 H           7.0230    1.0138    1.9137 H       1  LIG1        0.0000
     36 H           7.0122    1.8373    0.5037 H       1  LIG1        0.0000
     37 H           6.8647   -1.0385    0.7163 H       1  LIG1        0.0000
     38 H           6.8539   -0.2149   -0.6938 H       1  LIG1        0.0000
     39 H           8.9463   -1.0254   -0.2377 H       1  LIG1        0.0000
     40 H           4.9929   -0.0358    2.7706 H       1  LIG1        0.0000
     41 H           2.5952   -0.0466    2.7919 H       1  LIG1        0.0000
     42 H           0.5000    0.1340    0.9961 H       1  LIG1        0.0000
     43 H           0.5066    2.8011    0.1915 H       1  LIG1        0.0000
     44 H           0.5066    2.7938    1.8245 H       1  LIG1        0.0000
     45 H          -3.2394    2.9670    4.1554 H       1  LIG1        0.0000
     46 H          -2.5248    3.0972    6.4403 H       1  LIG1        0.0000
     47 H           0.9377    1.0215    5.4663 H       1  LIG1        0.0000
     48 H           0.2137    0.8942    3.1842 H       1  LIG1        0.0000
     49 H          -5.2451    1.2448   -0.2444 H       1  LIG1        0.0000
     50 H          -4.8303    1.3365   -2.5767 H       1  LIG1        0.0000
     51 H          -3.3764    1.6261   -4.3718 H       1  LIG1        0.0000
     52 H          -2.1579    2.6860   -4.1296 H       1  LIG1        0.0000
     53 H          -1.8542    1.0815   -4.1415 H       1  LIG1        0.0000
     54 H          -0.8402    2.0815   -1.7661 H       1  LIG1        0.0000
@<TRIPOS>BOND
     1     1     2    1
     2     2     3    1
     3     3     4   ar
     4     4     5   ar
     5     5     6    1
     6     6     7    1
     7     7     8    1
     8     5     9   ar
     9     9    10   ar
    10    10    11   ar
    11    11     3   ar
    12    11    12    1
    13    12    13    1
    14    13    14    1
    15    14    15    2
    16    15    16    1
    17    16    17   ar
    18    17    18   ar
    19    18    19   ar
    20    19    20    1
    21    19    21   ar
    22    21    22   ar
    23    22    16   ar
    24    15    23    1
    25    23    24    2
    26    24    25    1
    27    25    26    2
    28    26    27    1
    29    27    28    1
    30    27    29    2
    31    29    30    1
    32    30    14    1
    33    30    24    1
    34     1    31    1
    35     1    32    1
    36     1    33    1
    37     4    34    1
    38     6    35    1
    39     6    36    1
    40     7    37    1
    41     7    38    1
    42     8    39    1
    43     9    40    1
    44    10    41    1
    45    12    42    1
    46    13    43    1
    47    13    44    1
    48    17    45    1
    49    18    46    1
    50    21    47    1
    51    22    48    1
    52    25    49    1
    53    26    50    1
    54    28    51    1
    55    28    52    1
    56    28    53    1
    57    29    54    1
