@<TRIPOS>MOLECULE
*****
 54 57 0 0 0
SMALL
USER_CHARGES

@<TRIPOS>ATOM
      1 C1          3.1986   -2.0666   -0.7891 C.3     1  LIG1        0.0000
      2 O2          2.4028   -1.0507   -0.1966 O.3     1  LIG1        0.0000
      3 C3          3.0863   -0.0452    0.3904 C.ar    1  LIG1        0.0000
      4 C4          4.4768   -0.0632    0.3796 C.ar    1  LIG1        0.0000
      5 C5          5.1644    0.9809    0.9889 C.ar    1  LIG1        0.0000
      6 C6          6.6846    0.9727    0.9828 C.3     1  LIG1        0.0000
      7 C7          7.1923    0.2472    2.2183 C.3     1  LIG1        0.0000
      8 O8          8.6123    0.2396    2.2126 O.3     1  LIG1        0.0000
      9 C9          4.4829    2.0282    1.6013 C.ar    1  LIG1        0.0000
     10 C10         3.0917    2.0422    1.6090 C.ar    1  LIG1        0.0000
     11 C11         2.4004    1.0000    1.0000 C.ar    1  LIG1        0.0000
     12 N12         1.0000    1.0000    1.0000 N.pl3   1  LIG1        0.0000
     13 C13         0.2650    2.2730    1.0057 C.3     1  LIG1        0.0000
     14 C14         0.0114    2.7187   -0.4271 C.2     1  LIG1        0.0000
     15 C15         0.8383    3.5038   -1.1691 C.2     1  LIG1        0.0000
     16 C16         2.1072    4.0636   -0.7451 C.ar    1  LIG1        0.0000
     17 C17         3.1766    4.0922   -1.6347 C.ar    1  LIG1        0.0000
     18 C18         4.3978    4.6269   -1.2372 C.ar    1  LIG1        0.0000
     19 C19         4.5305    5.1275    0.0540 C.ar    1  LIG1        0.0000
     20 F20         5.6952    5.6403    0.4403 F       1  LIG1        0.0000
     21 C21         3.4673    5.1026    0.9504 C.ar    1  LIG1        0.0000
     22 C22         2.2496    4.5665    0.5436 C.ar    1  LIG1        0.0000
     23 N23         0.2495    3.6613   -2.3865 N.2     1  LIG1        0.0000
     24 C24        -0.8907    2.9984   -2.3827 C.2     1  LIG1        0.0000
     25 C25        -1.8801    2.8522   -3.3872 C.2     1  LIG1        0.0000
     26 C26        -3.0091    2.1068   -3.1651 C.2     1  LIG1        0.0000
     27 C27        -3.1819    1.4797   -1.9037 C.2     1  LIG1        0.0000
     28 C28        -4.4371    0.6509   -1.6706 C.3     1  LIG1        0.0000
     29 C29        -2.2062    1.6500   -0.9524 C.2     1  LIG1        0.0000
     30 N30        -1.0782    2.3966   -1.1864 N.pl3   1  LIG1        0.0000
     31 H           2.6046   -2.7613   -1.1946 H       1  LIG1        0.0000
     32 H           3.7760   -1.6654   -1.5002 H       1  LIG1        0.0000
     33 H           3.7756   -2.4884   -0.0897 H       1  LIG1        0.0000
     34 H           4.9730   -0.8130   -0.0580 H       1  LIG1        0.0000
     35 H           7.0230    1.9137    0.9862 H       1  LIG1        0.0000
     36 H           7.0122    0.5037    0.1627 H       1  LIG1        0.0000
     37 H           6.8647    0.7163    3.0385 H       1  LIG1        0.0000
     38 H           6.8539   -0.6938    2.2149 H       1  LIG1        0.0000
     39 H           8.9463   -0.2377    3.0254 H       1  LIG1        0.0000
     40 H           4.9929    2.7706    2.0358 H       1  LIG1        0.0000
     41 H           2.5952    2.7919    2.0466 H       1  LIG1        0.0000
     42 H           0.5000    0.1340    0.9961 H       1  LIG1        0.0000
     43 H           0.8054    2.9679    1.4802 H       1  LIG1        0.0000
     44 H          -0.6088    2.1514    1.4765 H       1  LIG1        0.0000
     45 H           3.0674    3.7284   -2.5597 H       1  LIG1        0.0000
     46 H           5.1705    4.6511   -1.8715 H       1  LIG1        0.0000
     47 H           3.5767    5.4655    1.8758 H       1  LIG1        0.0000
     48 H           1.4768    4.5428    1.1779 H       1  LIG1        0.0000
     49 H          -1.7525    3.2999   -4.2722 H       1  LIG1        0.0000
     50 H          -3.7002    2.0064   -3.8809 H       1  LIG1        0.0000
     51 H          -5.0039    0.6655   -2.4944 H       1  LIG1        0.0000
     52 H          -4.1794   -0.2921   -1.4599 H       1  LIG1        0.0000
     53 H          -4.9525    1.0348   -0.9045 H       1  LIG1        0.0000
     54 H          -2.3213    1.2155   -0.0591 H       1  LIG1        0.0000
@<TRIPOS>BOND
     1     1     2    1
     2     2     3    1
     3     3     4   ar
     4     4     5   ar
     5     5     6    1
     6     6     7    1
     7     7     8    1
     8     5     9   ar
     9     9    10   ar
    10    10    11   ar
    11    11     3   ar
    12    11    12    1
    13    12    13    1
    14    13    14    1
    15    14    15    2
    16    15    16    1
    17    16    17   ar
    18    17    18   ar
    19    18    19   ar
    20    19    20    1
    21    19    21   ar
    22    21    22   ar
    23    22    16   ar
    24    15    23    1
    25    23    24    2
    26    24    25    1
    27    25    26    2
    28    26    27    1
    29    27    28    1
    30    27    29    2
    31    29    30    1
    32    30    14    1
    33    30    24    1
    34     1    31    1
    35     1    32    1
    36     1    33    1
    37     4    34    1
    38     6    35    1
    39     6    36    1
    40     7    37    1
    41     7    38    1
    42     8    39    1
    43     9    40    1
    44    10    41    1
    45    12    42    1
    46    13    43    1
    47    13    44    1
    48    17    45    1
    49    18    46    1
    50    21    47    1
    51    22    48    1
    52    25    49    1
    53    26    50    1
    54    28    51    1
    55    28    52    1
    56    28    53    1
    57    29    54    1
