@<TRIPOS>MOLECULE

  23   24
SMALL
USER_CHARGES
@<TRIPOS>ATOM
   1 O1          -0.2153     1.6780     0.7174 O.3          1    LIG   0.0000
   2 C2           1.0000     1.0000     1.0000 C.3          1    LIG   0.0000
   3 C3           1.8778     1.8778     1.8778 C.2          1    LIG   0.0000
   4 C4           1.8742     1.8882     3.2390 C.2          1    LIG   0.0000
   5 C5           2.8361     2.8452     3.6267 C.2          1    LIG   0.0000
   6 C6           3.3439     3.3343     2.4630 C.2          1    LIG   0.0000
   7 C7           4.3710     4.3537     2.3671 C.ar         1    LIG   0.0000
   8 C8           4.8919     4.8801     3.5446 C.ar         1    LIG   0.0000
   9 C9           5.8774     5.8583     3.4655 C.ar         1    LIG   0.0000
  10 Cl10         6.5582     6.5455     4.9598 Cl           1    LIG   0.0000
  11 C11          6.3359     6.3043     2.2307 C.ar         1    LIG   0.0000
  12 Cl12         7.5979     7.5569     2.1497 Cl           1    LIG   0.0000
  13 C13          5.8132     5.7763     1.0546 C.ar         1    LIG   0.0000
  14 C14          4.8270     4.7979     1.1301 C.ar         1    LIG   0.0000
  15 Cl15         4.1654     4.1301    -0.3814 Cl           1    LIG   0.0000
  16 O16          2.7599     2.7470     1.4446 O.2          1    LIG   0.0000
  17 H           -0.7926     1.1006     0.1401 H            1    LIG   0.0000
  18 H            1.4775     0.8010     0.1442 H            1    LIG   0.0000
  19 H            0.8010     0.1442     1.4775 H            1    LIG   0.0000
  20 H            1.3047     1.3301     3.8426 H            1    LIG   0.0000
  21 H            3.0902     3.1076     4.5576 H            1    LIG   0.0000
  22 H            4.5633     4.5604     4.4333 H            1    LIG   0.0000
  23 H            6.1422     6.0961     0.1661 H            1    LIG   0.0000
@<TRIPOS>BOND
   1        1        2 1
   2        2        3 1
   3        3        4 2
   4        4        5 1
   5        5        6 2
   6        6        7 1
   7        7        8 ar
   8        8        9 ar
   9        9       10 1
  10        9       11 ar
  11       11       12 1
  12       11       13 ar
  13       13       14 ar
  14       14        7 ar
  15       14       15 1
  16        6       16 1
  17       16        3 1
  18        1       17 1
  19        2       18 1
  20        2       19 1
  21        4       20 1
  22        5       21 1
  23        8       22 1
  24       13       23 1

@<TRIPOS>MOLECULE

  23   24
SMALL
USER_CHARGES
@<TRIPOS>ATOM
   1 O1          -0.2153     1.6780     0.7174 O.3          1    LIG   0.0000
   2 C2           1.0000     1.0000     1.0000 C.3          1    LIG   0.0000
   3 C3           1.8778     1.8778     1.8778 C.2          1    LIG   0.0000
   4 C4           1.8742     1.8882     3.2390 C.2          1    LIG   0.0000
   5 C5           2.8361     2.8452     3.6267 C.2          1    LIG   0.0000
   6 C6           3.3439     3.3343     2.4630 C.2          1    LIG   0.0000
   7 C7           4.3710     4.3537     2.3671 C.ar         1    LIG   0.0000
   8 C8           4.2443     5.3293     1.3837 C.ar         1    LIG   0.0000
   9 C9           5.2230     6.3122     1.2819 C.ar         1    LIG   0.0000
  10 Cl10         5.0807     7.5704     0.0307 Cl           1    LIG   0.0000
  11 C11          6.3110     6.3215     2.1478 C.ar         1    LIG   0.0000
  12 Cl12         7.5534     7.5878     2.0020 Cl           1    LIG   0.0000
  13 C13          6.4354     5.3447     3.1304 C.ar         1    LIG   0.0000
  14 C14          5.4584     4.3598     3.2349 C.ar         1    LIG   0.0000
  15 Cl15         5.6284     3.1149     4.4957 Cl           1    LIG   0.0000
  16 O16          2.7599     2.7470     1.4446 O.2          1    LIG   0.0000
  17 H           -0.7926     1.1006     0.1401 H            1    LIG   0.0000
  18 H            1.4775     0.8010     0.1442 H            1    LIG   0.0000
  19 H            0.8010     0.1442     1.4775 H            1    LIG   0.0000
  20 H            1.3047     1.3301     3.8426 H            1    LIG   0.0000
  21 H            3.0902     3.1076     4.5576 H            1    LIG   0.0000
  22 H            3.4625     5.3240     0.7602 H            1    LIG   0.0000
  23 H            7.2172     5.3504     3.7539 H            1    LIG   0.0000
@<TRIPOS>BOND
   1        1        2 1
   2        2        3 1
   3        3        4 2
   4        4        5 1
   5        5        6 2
   6        6        7 1
   7        7        8 ar
   8        8        9 ar
   9        9       10 1
  10        9       11 ar
  11       11       12 1
  12       11       13 ar
  13       13       14 ar
  14       14        7 ar
  15       14       15 1
  16        6       16 1
  17       16        3 1
  18        1       17 1
  19        2       18 1
  20        2       19 1
  21        4       20 1
  22        5       21 1
  23        8       22 1
  24       13       23 1

@<TRIPOS>MOLECULE

  23   24
SMALL
USER_CHARGES
@<TRIPOS>ATOM
   1 O1          -0.2153     1.6780     0.7174 O.3          1    LIG   0.0000
   2 C2           1.0000     1.0000     1.0000 C.3          1    LIG   0.0000
   3 C3           1.8778     1.8778     1.8778 C.2          1    LIG   0.0000
   4 C4           1.8742     1.8882     3.2390 C.2          1    LIG   0.0000
   5 C5           2.8361     2.8452     3.6267 C.2          1    LIG   0.0000
   6 C6           3.3439     3.3343     2.4630 C.2          1    LIG   0.0000
   7 C7           4.3710     4.3537     2.3671 C.ar         1    LIG   0.0000
   8 C8           5.3531     4.2130     1.3922 C.ar         1    LIG   0.0000
   9 C9           6.3434     5.1842     1.2905 C.ar         1    LIG   0.0000
  10 Cl10         7.6099     5.0240     0.0498 Cl           1    LIG   0.0000
  11 C11          6.3536     6.2787     2.1481 C.ar         1    LIG   0.0000
  12 Cl12         7.6292     7.5115     2.0024 Cl           1    LIG   0.0000
  13 C13          5.3703     6.4171     3.1224 C.ar         1    LIG   0.0000
  14 C14          4.3783     5.4473     3.2271 C.ar         1    LIG   0.0000
  15 Cl15         3.1257     5.6347     4.4778 Cl           1    LIG   0.0000
  16 O16          2.7599     2.7470     1.4446 O.2          1    LIG   0.0000
  17 H           -0.7926     1.1006     0.1401 H            1    LIG   0.0000
  18 H            1.4775     0.8010     0.1442 H            1    LIG   0.0000
  19 H            0.8010     0.1442     1.4775 H            1    LIG   0.0000
  20 H            1.3047     1.3301     3.8426 H            1    LIG   0.0000
  21 H            3.0902     3.1076     4.5576 H            1    LIG   0.0000
  22 H            5.3472     3.4265     0.7746 H            1    LIG   0.0000
  23 H            5.3764     7.2038     3.7396 H            1    LIG   0.0000
@<TRIPOS>BOND
   1        1        2 1
   2        2        3 1
   3        3        4 2
   4        4        5 1
   5        5        6 2
   6        6        7 1
   7        7        8 ar
   8        8        9 ar
   9        9       10 1
  10        9       11 ar
  11       11       12 1
  12       11       13 ar
  13       13       14 ar
  14       14        7 ar
  15       14       15 1
  16        6       16 1
  17       16        3 1
  18        1       17 1
  19        2       18 1
  20        2       19 1
  21        4       20 1
  22        5       21 1
  23        8       22 1
  24       13       23 1

@<TRIPOS>MOLECULE

  23   24
SMALL
USER_CHARGES
@<TRIPOS>ATOM
   1 O1          -0.2153     1.6780     0.7174 O.3          1    LIG   0.0000
   2 C2           1.0000     1.0000     1.0000 C.3          1    LIG   0.0000
   3 C3           1.8778     1.8778     1.8778 C.2          1    LIG   0.0000
   4 C4           3.1137     1.5458     2.3419 C.2          1    LIG   0.0000
   5 C5           3.5539     2.6462     3.1079 C.2          1    LIG   0.0000
   6 C6           2.5440     3.5557     3.0416 C.2          1    LIG   0.0000
   7 C7           2.5503     4.8542     3.6873 C.ar         1    LIG   0.0000
   8 C8           3.7319     5.5882     3.6845 C.ar         1    LIG   0.0000
   9 C9           3.7503     6.8349     4.3007 C.ar         1    LIG   0.0000
  10 Cl10         5.2516     7.7913     4.3087 Cl           1    LIG   0.0000
  11 C11          2.6076     7.3413     4.9100 C.ar         1    LIG   0.0000
  12 Cl12         2.6506     8.9391     5.6934 Cl           1    LIG   0.0000
  13 C13          1.4271     6.6053     4.9115 C.ar         1    LIG   0.0000
  14 C14          1.4053     5.3576     4.2964 C.ar         1    LIG   0.0000
  15 Cl15        -0.1106     4.4247     4.3050 Cl           1    LIG   0.0000
  16 O16          1.5652     3.0765     2.3098 O.2          1    LIG   0.0000
  17 H           -0.7926     1.1006     0.1401 H            1    LIG   0.0000
  18 H            1.4775     0.8010     0.1442 H            1    LIG   0.0000
  19 H            0.8010     0.1442     1.4775 H            1    LIG   0.0000
  20 H            3.6097     0.6939     2.1738 H            1    LIG   0.0000
  21 H            4.4223     2.7379     3.5952 H            1    LIG   0.0000
  22 H            4.5545     5.2254     3.2467 H            1    LIG   0.0000
  23 H            0.6046     6.9684     5.3493 H            1    LIG   0.0000
@<TRIPOS>BOND
   1        1        2 1
   2        2        3 1
   3        3        4 2
   4        4        5 1
   5        5        6 2
   6        6        7 1
   7        7        8 ar
   8        8        9 ar
   9        9       10 1
  10        9       11 ar
  11       11       12 1
  12       11       13 ar
  13       13       14 ar
  14       14        7 ar
  15       14       15 1
  16        6       16 1
  17       16        3 1
  18        1       17 1
  19        2       18 1
  20        2       19 1
  21        4       20 1
  22        5       21 1
  23        8       22 1
  24       13       23 1

@<TRIPOS>MOLECULE

  23   24
SMALL
USER_CHARGES
@<TRIPOS>ATOM
   1 O1          -0.2153     1.6780     0.7174 O.3          1    LIG   0.0000
   2 C2           1.0000     1.0000     1.0000 C.3          1    LIG   0.0000
   3 C3           1.8778     1.8778     1.8778 C.2          1    LIG   0.0000
   4 C4           2.7934     2.7794     1.4286 C.2          1    LIG   0.0000
   5 C5           3.3692     3.3602     2.5786 C.2          1    LIG   0.0000
   6 C6           2.7503     2.7598     3.6312 C.2          1    LIG   0.0000
   7 C7           3.0236     3.0408     5.0274 C.ar         1    LIG   0.0000
   8 C8           4.3439     3.2453     5.4144 C.ar         1    LIG   0.0000
   9 C9           4.6185     3.5155     6.7508 C.ar         1    LIG   0.0000
  10 Cl10         6.3011     3.7807     7.2680 Cl           1    LIG   0.0000
  11 C11          3.5918     3.5807     7.6863 C.ar         1    LIG   0.0000
  12 Cl12         3.9630     3.9280     9.3922 Cl           1    LIG   0.0000
  13 C13          2.2722     3.3758     7.2967 C.ar         1    LIG   0.0000
  14 C14          1.9939     3.1049     5.9607 C.ar         1    LIG   0.0000
  15 Cl15         0.3018     2.8440     5.4741 Cl           1    LIG   0.0000
  16 O16          1.8745     1.8873     3.1897 O.2          1    LIG   0.0000
  17 H           -0.7926     1.1006     0.1401 H            1    LIG   0.0000
  18 H            1.4775     0.8010     0.1442 H            1    LIG   0.0000
  19 H            0.8010     0.1442     1.4775 H            1    LIG   0.0000
  20 H            3.0136     2.9881     0.4757 H            1    LIG   0.0000
  21 H            4.0801     4.0627     2.6127 H            1    LIG   0.0000
  22 H            5.0834     3.1987     4.7429 H            1    LIG   0.0000
  23 H            1.5329     3.4226     7.9685 H            1    LIG   0.0000
@<TRIPOS>BOND
   1        1        2 1
   2        2        3 1
   3        3        4 2
   4        4        5 1
   5        5        6 2
   6        6        7 1
   7        7        8 ar
   8        8        9 ar
   9        9       10 1
  10        9       11 ar
  11       11       12 1
  12       11       13 ar
  13       13       14 ar
  14       14        7 ar
  15       14       15 1
  16        6       16 1
  17       16        3 1
  18        1       17 1
  19        2       18 1
  20        2       19 1
  21        4       20 1
  22        5       21 1
  23        8       22 1
  24       13       23 1

@<TRIPOS>MOLECULE

  23   24
SMALL
USER_CHARGES
@<TRIPOS>ATOM
   1 O1          -0.2153     1.6780     0.7174 O.3          1    LIG   0.0000
   2 C2           1.0000     1.0000     1.0000 C.3          1    LIG   0.0000
   3 C3           1.8778     1.8778     1.8778 C.2          1    LIG   0.0000
   4 C4           2.7934     2.7794     1.4286 C.2          1    LIG   0.0000
   5 C5           3.3692     3.3602     2.5786 C.2          1    LIG   0.0000
   6 C6           2.7503     2.7598     3.6312 C.2          1    LIG   0.0000
   7 C7           3.0236     3.0408     5.0274 C.ar         1    LIG   0.0000
   8 C8           3.0605     1.9756     5.9212 C.ar         1    LIG   0.0000
   9 C9           3.3217     2.2325     7.2628 C.ar         1    LIG   0.0000
  10 Cl10         3.3739     0.8842     8.4239 Cl           1    LIG   0.0000
  11 C11          3.5425     3.5320     7.7058 C.ar         1    LIG   0.0000
  12 Cl12         3.8754     3.8410     9.4268 Cl           1    LIG   0.0000
  13 C13          3.5050     4.5956     6.8099 C.ar         1    LIG   0.0000
  14 C14          3.2437     4.3422     5.4671 C.ar         1    LIG   0.0000
  15 Cl15         3.1976     5.7111     4.3303 Cl           1    LIG   0.0000
  16 O16          1.8745     1.8873     3.1897 O.2          1    LIG   0.0000
  17 H           -0.7926     1.1006     0.1401 H            1    LIG   0.0000
  18 H            1.4775     0.8010     0.1442 H            1    LIG   0.0000
  19 H            0.8010     0.1442     1.4775 H            1    LIG   0.0000
  20 H            3.0136     2.9881     0.4757 H            1    LIG   0.0000
  21 H            4.0801     4.0627     2.6127 H            1    LIG   0.0000
  22 H            2.9019     1.0405     5.6042 H            1    LIG   0.0000
  23 H            3.6638     5.5306     7.1271 H            1    LIG   0.0000
@<TRIPOS>BOND
   1        1        2 1
   2        2        3 1
   3        3        4 2
   4        4        5 1
   5        5        6 2
   6        6        7 1
   7        7        8 ar
   8        8        9 ar
   9        9       10 1
  10        9       11 ar
  11       11       12 1
  12       11       13 ar
  13       13       14 ar
  14       14        7 ar
  15       14       15 1
  16        6       16 1
  17       16        3 1
  18        1       17 1
  19        2       18 1
  20        2       19 1
  21        4       20 1
  22        5       21 1
  23        8       22 1
  24       13       23 1

@<TRIPOS>MOLECULE

  23   24
SMALL
USER_CHARGES
@<TRIPOS>ATOM
   1 O1          -0.2153     1.6780     0.7174 O.3          1    LIG   0.0000
   2 C2           1.0000     1.0000     1.0000 C.3          1    LIG   0.0000
   3 C3           1.8778     1.8778     1.8778 C.2          1    LIG   0.0000
   4 C4           2.7934     2.7794     1.4286 C.2          1    LIG   0.0000
   5 C5           3.3692     3.3602     2.5786 C.2          1    LIG   0.0000
   6 C6           2.7503     2.7598     3.6312 C.2          1    LIG   0.0000
   7 C7           3.0236     3.0408     5.0274 C.ar         1    LIG   0.0000
   8 C8           1.9524     3.0925     5.9133 C.ar         1    LIG   0.0000
   9 C9           2.2019     3.3612     7.2549 C.ar         1    LIG   0.0000
  10 Cl10         0.8460     3.4318     8.4060 Cl           1    LIG   0.0000
  11 C11          3.5000     3.5749     7.7054 C.ar         1    LIG   0.0000
  12 Cl12         3.7995     3.9173     9.4263 Cl           1    LIG   0.0000
  13 C13          4.5696     3.5227     6.8175 C.ar         1    LIG   0.0000
  14 C14          4.3235     3.2545     5.4746 C.ar         1    LIG   0.0000
  15 Cl15         5.6998     3.1908     4.3477 Cl           1    LIG   0.0000
  16 O16          1.8745     1.8873     3.1897 O.2          1    LIG   0.0000
  17 H           -0.7926     1.1006     0.1401 H            1    LIG   0.0000
  18 H            1.4775     0.8010     0.1442 H            1    LIG   0.0000
  19 H            0.8010     0.1442     1.4775 H            1    LIG   0.0000
  20 H            3.0136     2.9881     0.4757 H            1    LIG   0.0000
  21 H            4.0801     4.0627     2.6127 H            1    LIG   0.0000
  22 H            1.0183     2.9391     5.5909 H            1    LIG   0.0000
  23 H            5.5035     3.6761     7.1402 H            1    LIG   0.0000
@<TRIPOS>BOND
   1        1        2 1
   2        2        3 1
   3        3        4 2
   4        4        5 1
   5        5        6 2
   6        6        7 1
   7        7        8 ar
   8        8        9 ar
   9        9       10 1
  10        9       11 ar
  11       11       12 1
  12       11       13 ar
  13       13       14 ar
  14       14        7 ar
  15       14       15 1
  16        6       16 1
  17       16        3 1
  18        1       17 1
  19        2       18 1
  20        2       19 1
  21        4       20 1
  22        5       21 1
  23        8       22 1
  24       13       23 1

@<TRIPOS>MOLECULE

  23   24
SMALL
USER_CHARGES
@<TRIPOS>ATOM
   1 O1          -0.2153     1.6780     0.7174 O.3          1    LIG   0.0000
   2 C2           1.0000     1.0000     1.0000 C.3          1    LIG   0.0000
   3 C3           1.8778     1.8778     1.8778 C.2          1    LIG   0.0000
   4 C4           2.1845     3.1816     1.6352 C.2          1    LIG   0.0000
   5 C5           3.0168     3.5933     2.6978 C.2          1    LIG   0.0000
   6 C6           3.1431     2.5001     3.4980 C.2          1    LIG   0.0000
   7 C7           3.9184     2.4508     4.7226 C.ar         1    LIG   0.0000
   8 C8           4.5874     3.6008     5.1283 C.ar         1    LIG   0.0000
   9 C9           5.3343     3.5658     6.3010 C.ar         1    LIG   0.0000
  10 Cl10         6.1983     5.0263     6.8389 Cl           1    LIG   0.0000
  11 C11          5.4124     2.4014     7.0571 C.ar         1    LIG   0.0000
  12 Cl12         6.3732     2.3760     8.5553 Cl           1    LIG   0.0000
  13 C13          4.7425     1.2525     6.6492 C.ar         1    LIG   0.0000
  14 C14          3.9947     1.2839     5.4764 C.ar         1    LIG   0.0000
  15 Cl15         3.1423    -0.1923     4.9642 Cl           1    LIG   0.0000
  16 O16          2.4614     1.4998     2.9903 O.2          1    LIG   0.0000
  17 H           -0.7926     1.1006     0.1401 H            1    LIG   0.0000
  18 H            1.4775     0.8010     0.1442 H            1    LIG   0.0000
  19 H            0.8010     0.1442     1.4775 H            1    LIG   0.0000
  20 H            1.8813     3.7360     0.8601 H            1    LIG   0.0000
  21 H            3.4262     4.4955     2.8337 H            1    LIG   0.0000
  22 H            4.5323     4.4390     4.5857 H            1    LIG   0.0000
  23 H            4.7977     0.4145     7.1921 H            1    LIG   0.0000
@<TRIPOS>BOND
   1        1        2 1
   2        2        3 1
   3        3        4 2
   4        4        5 1
   5        5        6 2
   6        6        7 1
   7        7        8 ar
   8        8        9 ar
   9        9       10 1
  10        9       11 ar
  11       11       12 1
  12       11       13 ar
  13       13       14 ar
  14       14        7 ar
  15       14       15 1
  16        6       16 1
  17       16        3 1
  18        1       17 1
  19        2       18 1
  20        2       19 1
  21        4       20 1
  22        5       21 1
  23        8       22 1
  24       13       23 1

@<TRIPOS>MOLECULE

  23   24
SMALL
USER_CHARGES
@<TRIPOS>ATOM
   1 O1          -0.2153     1.6780     0.7174 O.3          1    LIG   0.0000
   2 C2           1.0000     1.0000     1.0000 C.3          1    LIG   0.0000
   3 C3           1.8778     1.8778     1.8778 C.2          1    LIG   0.0000
   4 C4           2.1845     3.1816     1.6352 C.2          1    LIG   0.0000
   5 C5           3.0168     3.5933     2.6978 C.2          1    LIG   0.0000
   6 C6           3.1431     2.5001     3.4980 C.2          1    LIG   0.0000
   7 C7           3.9184     2.4508     4.7226 C.ar         1    LIG   0.0000
   8 C8           3.5767     3.3159     5.7568 C.ar         1    LIG   0.0000
   9 C9           4.3129     3.2779     6.9361 C.ar         1    LIG   0.0000
  10 Cl10         3.8927     4.3761     8.2725 Cl           1    LIG   0.0000
  11 C11          5.3736     2.3905     7.0812 C.ar         1    LIG   0.0000
  12 Cl12         6.3041     2.3564     8.5982 Cl           1    LIG   0.0000
  13 C13          5.7135     1.5263     6.0454 C.ar         1    LIG   0.0000
  14 C14          4.9793     1.5619     4.8642 C.ar         1    LIG   0.0000
  15 Cl15         5.4236     0.4519     3.5456 Cl           1    LIG   0.0000
  16 O16          2.4614     1.4998     2.9903 O.2          1    LIG   0.0000
  17 H           -0.7926     1.1006     0.1401 H            1    LIG   0.0000
  18 H            1.4775     0.8010     0.1442 H            1    LIG   0.0000
  19 H            0.8010     0.1442     1.4775 H            1    LIG   0.0000
  20 H            1.8813     3.7360     0.8601 H            1    LIG   0.0000
  21 H            3.4262     4.4955     2.8337 H            1    LIG   0.0000
  22 H            2.8142     3.9547     5.6540 H            1    LIG   0.0000
  23 H            6.4759     0.8875     6.1486 H            1    LIG   0.0000
@<TRIPOS>BOND
   1        1        2 1
   2        2        3 1
   3        3        4 2
   4        4        5 1
   5        5        6 2
   6        6        7 1
   7        7        8 ar
   8        8        9 ar
   9        9       10 1
  10        9       11 ar
  11       11       12 1
  12       11       13 ar
  13       13       14 ar
  14       14        7 ar
  15       14       15 1
  16        6       16 1
  17       16        3 1
  18        1       17 1
  19        2       18 1
  20        2       19 1
  21        4       20 1
  22        5       21 1
  23        8       22 1
  24       13       23 1

