@<TRIPOS>MOLECULE
*****
 23 24 0 0 0
SMALL
USER_CHARGES

@<TRIPOS>ATOM
      1 O1         -0.2153    1.6780    0.7174 O.3     1  LIG1        0.0000
      2 C2          1.0000    1.0000    1.0000 C.3     1  LIG1        0.0000
      3 C3          1.8778    1.8778    1.8778 C.2     1  LIG1        0.0000
      4 C4          2.1845    3.1816    1.6352 C.2     1  LIG1        0.0000
      5 C5          3.0168    3.5933    2.6978 C.2     1  LIG1        0.0000
      6 C6          3.1431    2.5001    3.4980 C.2     1  LIG1        0.0000
      7 C7          3.9184    2.4508    4.7226 C.ar    1  LIG1        0.0000
      8 C8          4.5874    3.6008    5.1283 C.ar    1  LIG1        0.0000
      9 C9          5.3343    3.5658    6.3010 C.ar    1  LIG1        0.0000
     10 Cl10        6.1983    5.0263    6.8389 Cl      1  LIG1        0.0000
     11 C11         5.4124    2.4014    7.0571 C.ar    1  LIG1        0.0000
     12 Cl12        6.3732    2.3760    8.5553 Cl      1  LIG1        0.0000
     13 C13         4.7425    1.2525    6.6492 C.ar    1  LIG1        0.0000
     14 C14         3.9947    1.2839    5.4764 C.ar    1  LIG1        0.0000
     15 Cl15        3.1423   -0.1923    4.9642 Cl      1  LIG1        0.0000
     16 O16         2.4614    1.4998    2.9903 O.2     1  LIG1        0.0000
     17 H          -0.7926    1.1006    0.1401 H       1  LIG1        0.0000
     18 H           1.4775    0.8010    0.1442 H       1  LIG1        0.0000
     19 H           0.8010    0.1442    1.4775 H       1  LIG1        0.0000
     20 H           1.8813    3.7360    0.8601 H       1  LIG1        0.0000
     21 H           3.4262    4.4955    2.8337 H       1  LIG1        0.0000
     22 H           4.5323    4.4390    4.5857 H       1  LIG1        0.0000
     23 H           4.7977    0.4145    7.1921 H       1  LIG1        0.0000
@<TRIPOS>BOND
     1     1     2    1
     2     2     3    1
     3     3     4    2
     4     4     5    1
     5     5     6    2
     6     6     7    1
     7     7     8   ar
     8     8     9   ar
     9     9    10    1
    10     9    11   ar
    11    11    12    1
    12    11    13   ar
    13    13    14   ar
    14    14     7   ar
    15    14    15    1
    16     6    16    1
    17    16     3    1
    18     1    17    1
    19     2    18    1
    20     2    19    1
    21     4    20    1
    22     5    21    1
    23     8    22    1
    24    13    23    1
