@<TRIPOS>MOLECULE
*****
 23 24 0 0 0
SMALL
USER_CHARGES

@<TRIPOS>ATOM
      1 O1         -0.2153    1.6780    0.7174 O.3     1  LIG1        0.0000
      2 C2          1.0000    1.0000    1.0000 C.3     1  LIG1        0.0000
      3 C3          1.8778    1.8778    1.8778 C.2     1  LIG1        0.0000
      4 C4          1.8742    1.8882    3.2390 C.2     1  LIG1        0.0000
      5 C5          2.8361    2.8452    3.6267 C.2     1  LIG1        0.0000
      6 C6          3.3439    3.3343    2.4630 C.2     1  LIG1        0.0000
      7 C7          4.3710    4.3537    2.3671 C.ar    1  LIG1        0.0000
      8 C8          4.8919    4.8801    3.5446 C.ar    1  LIG1        0.0000
      9 C9          5.8774    5.8583    3.4655 C.ar    1  LIG1        0.0000
     10 Cl10        6.5582    6.5455    4.9598 Cl      1  LIG1        0.0000
     11 C11         6.3359    6.3043    2.2307 C.ar    1  LIG1        0.0000
     12 Cl12        7.5979    7.5569    2.1497 Cl      1  LIG1        0.0000
     13 C13         5.8132    5.7763    1.0546 C.ar    1  LIG1        0.0000
     14 C14         4.8270    4.7979    1.1301 C.ar    1  LIG1        0.0000
     15 Cl15        4.1654    4.1301   -0.3814 Cl      1  LIG1        0.0000
     16 O16         2.7599    2.7470    1.4446 O.2     1  LIG1        0.0000
     17 H          -0.7926    1.1006    0.1401 H       1  LIG1        0.0000
     18 H           1.4775    0.8010    0.1442 H       1  LIG1        0.0000
     19 H           0.8010    0.1442    1.4775 H       1  LIG1        0.0000
     20 H           1.3047    1.3301    3.8426 H       1  LIG1        0.0000
     21 H           3.0902    3.1076    4.5576 H       1  LIG1        0.0000
     22 H           4.5633    4.5604    4.4333 H       1  LIG1        0.0000
     23 H           6.1422    6.0961    0.1661 H       1  LIG1        0.0000
@<TRIPOS>BOND
     1     1     2    1
     2     2     3    1
     3     3     4    2
     4     4     5    1
     5     5     6    2
     6     6     7    1
     7     7     8   ar
     8     8     9   ar
     9     9    10    1
    10     9    11   ar
    11    11    12    1
    12    11    13   ar
    13    13    14   ar
    14    14     7   ar
    15    14    15    1
    16     6    16    1
    17    16     3    1
    18     1    17    1
    19     2    18    1
    20     2    19    1
    21     4    20    1
    22     5    21    1
    23     8    22    1
    24    13    23    1
