@<TRIPOS>MOLECULE
*****
 23 24 0 0 0
SMALL
USER_CHARGES

@<TRIPOS>ATOM
      1 O1         -0.2153    1.6780    0.7174 O.3     1  LIG1        0.0000
      2 C2          1.0000    1.0000    1.0000 C.3     1  LIG1        0.0000
      3 C3          1.8778    1.8778    1.8778 C.2     1  LIG1        0.0000
      4 C4          2.1845    3.1816    1.6352 C.2     1  LIG1        0.0000
      5 C5          3.0168    3.5933    2.6978 C.2     1  LIG1        0.0000
      6 C6          3.1431    2.5001    3.4980 C.2     1  LIG1        0.0000
      7 C7          3.9184    2.4508    4.7226 C.ar    1  LIG1        0.0000
      8 C8          3.5767    3.3159    5.7568 C.ar    1  LIG1        0.0000
      9 C9          4.3129    3.2779    6.9361 C.ar    1  LIG1        0.0000
     10 Cl10        3.8927    4.3761    8.2725 Cl      1  LIG1        0.0000
     11 C11         5.3736    2.3905    7.0812 C.ar    1  LIG1        0.0000
     12 Cl12        6.3041    2.3564    8.5982 Cl      1  LIG1        0.0000
     13 C13         5.7135    1.5263    6.0454 C.ar    1  LIG1        0.0000
     14 C14         4.9793    1.5619    4.8642 C.ar    1  LIG1        0.0000
     15 Cl15        5.4236    0.4519    3.5456 Cl      1  LIG1        0.0000
     16 O16         2.4614    1.4998    2.9903 O.2     1  LIG1        0.0000
     17 H          -0.7926    1.1006    0.1401 H       1  LIG1        0.0000
     18 H           1.4775    0.8010    0.1442 H       1  LIG1        0.0000
     19 H           0.8010    0.1442    1.4775 H       1  LIG1        0.0000
     20 H           1.8813    3.7360    0.8601 H       1  LIG1        0.0000
     21 H           3.4262    4.4955    2.8337 H       1  LIG1        0.0000
     22 H           2.8142    3.9547    5.6540 H       1  LIG1        0.0000
     23 H           6.4759    0.8875    6.1486 H       1  LIG1        0.0000
@<TRIPOS>BOND
     1     1     2    1
     2     2     3    1
     3     3     4    2
     4     4     5    1
     5     5     6    2
     6     6     7    1
     7     7     8   ar
     8     8     9   ar
     9     9    10    1
    10     9    11   ar
    11    11    12    1
    12    11    13   ar
    13    13    14   ar
    14    14     7   ar
    15    14    15    1
    16     6    16    1
    17    16     3    1
    18     1    17    1
    19     2    18    1
    20     2    19    1
    21     4    20    1
    22     5    21    1
    23     8    22    1
    24    13    23    1
