@<TRIPOS>MOLECULE
*****
 23 24 0 0 0
SMALL
USER_CHARGES

@<TRIPOS>ATOM
      1 O1         -0.2153    1.6780    0.7174 O.3     1  LIG1        0.0000
      2 C2          1.0000    1.0000    1.0000 C.3     1  LIG1        0.0000
      3 C3          1.8778    1.8778    1.8778 C.2     1  LIG1        0.0000
      4 C4          1.8742    1.8882    3.2390 C.2     1  LIG1        0.0000
      5 C5          2.8361    2.8452    3.6267 C.2     1  LIG1        0.0000
      6 C6          3.3439    3.3343    2.4630 C.2     1  LIG1        0.0000
      7 C7          4.3710    4.3537    2.3671 C.ar    1  LIG1        0.0000
      8 C8          5.3531    4.2130    1.3922 C.ar    1  LIG1        0.0000
      9 C9          6.3434    5.1842    1.2905 C.ar    1  LIG1        0.0000
     10 Cl10        7.6099    5.0240    0.0498 Cl      1  LIG1        0.0000
     11 C11         6.3536    6.2787    2.1481 C.ar    1  LIG1        0.0000
     12 Cl12        7.6292    7.5115    2.0024 Cl      1  LIG1        0.0000
     13 C13         5.3703    6.4171    3.1224 C.ar    1  LIG1        0.0000
     14 C14         4.3783    5.4473    3.2271 C.ar    1  LIG1        0.0000
     15 Cl15        3.1257    5.6347    4.4778 Cl      1  LIG1        0.0000
     16 O16         2.7599    2.7470    1.4446 O.2     1  LIG1        0.0000
     17 H          -0.7926    1.1006    0.1401 H       1  LIG1        0.0000
     18 H           1.4775    0.8010    0.1442 H       1  LIG1        0.0000
     19 H           0.8010    0.1442    1.4775 H       1  LIG1        0.0000
     20 H           1.3047    1.3301    3.8426 H       1  LIG1        0.0000
     21 H           3.0902    3.1076    4.5576 H       1  LIG1        0.0000
     22 H           5.3472    3.4265    0.7746 H       1  LIG1        0.0000
     23 H           5.3764    7.2038    3.7396 H       1  LIG1        0.0000
@<TRIPOS>BOND
     1     1     2    1
     2     2     3    1
     3     3     4    2
     4     4     5    1
     5     5     6    2
     6     6     7    1
     7     7     8   ar
     8     8     9   ar
     9     9    10    1
    10     9    11   ar
    11    11    12    1
    12    11    13   ar
    13    13    14   ar
    14    14     7   ar
    15    14    15    1
    16     6    16    1
    17    16     3    1
    18     1    17    1
    19     2    18    1
    20     2    19    1
    21     4    20    1
    22     5    21    1
    23     8    22    1
    24    13    23    1
