@<TRIPOS>MOLECULE
*****
 23 24 0 0 0
SMALL
USER_CHARGES

@<TRIPOS>ATOM
      1 O1         -0.2153    1.6780    0.7174 O.3     1  LIG1        0.0000
      2 C2          1.0000    1.0000    1.0000 C.3     1  LIG1        0.0000
      3 C3          1.8778    1.8778    1.8778 C.2     1  LIG1        0.0000
      4 C4          2.7934    2.7794    1.4286 C.2     1  LIG1        0.0000
      5 C5          3.3692    3.3602    2.5786 C.2     1  LIG1        0.0000
      6 C6          2.7503    2.7598    3.6312 C.2     1  LIG1        0.0000
      7 C7          3.0236    3.0408    5.0274 C.ar    1  LIG1        0.0000
      8 C8          4.3439    3.2453    5.4144 C.ar    1  LIG1        0.0000
      9 C9          4.6185    3.5155    6.7508 C.ar    1  LIG1        0.0000
     10 Cl10        6.3011    3.7807    7.2680 Cl      1  LIG1        0.0000
     11 C11         3.5918    3.5807    7.6863 C.ar    1  LIG1        0.0000
     12 Cl12        3.9630    3.9280    9.3922 Cl      1  LIG1        0.0000
     13 C13         2.2722    3.3758    7.2967 C.ar    1  LIG1        0.0000
     14 C14         1.9939    3.1049    5.9607 C.ar    1  LIG1        0.0000
     15 Cl15        0.3018    2.8440    5.4741 Cl      1  LIG1        0.0000
     16 O16         1.8745    1.8873    3.1897 O.2     1  LIG1        0.0000
     17 H          -0.7926    1.1006    0.1401 H       1  LIG1        0.0000
     18 H           1.4775    0.8010    0.1442 H       1  LIG1        0.0000
     19 H           0.8010    0.1442    1.4775 H       1  LIG1        0.0000
     20 H           3.0136    2.9881    0.4757 H       1  LIG1        0.0000
     21 H           4.0801    4.0627    2.6127 H       1  LIG1        0.0000
     22 H           5.0834    3.1987    4.7429 H       1  LIG1        0.0000
     23 H           1.5329    3.4226    7.9685 H       1  LIG1        0.0000
@<TRIPOS>BOND
     1     1     2    1
     2     2     3    1
     3     3     4    2
     4     4     5    1
     5     5     6    2
     6     6     7    1
     7     7     8   ar
     8     8     9   ar
     9     9    10    1
    10     9    11   ar
    11    11    12    1
    12    11    13   ar
    13    13    14   ar
    14    14     7   ar
    15    14    15    1
    16     6    16    1
    17    16     3    1
    18     1    17    1
    19     2    18    1
    20     2    19    1
    21     4    20    1
    22     5    21    1
    23     8    22    1
    24    13    23    1
