@<TRIPOS>MOLECULE
*****
 23 24 0 0 0
SMALL
USER_CHARGES

@<TRIPOS>ATOM
      1 O1         -0.2153    1.6780    0.7174 O.3     1  LIG1        0.0000
      2 C2          1.0000    1.0000    1.0000 C.3     1  LIG1        0.0000
      3 C3          1.8778    1.8778    1.8778 C.2     1  LIG1        0.0000
      4 C4          3.1137    1.5458    2.3419 C.2     1  LIG1        0.0000
      5 C5          3.5539    2.6462    3.1079 C.2     1  LIG1        0.0000
      6 C6          2.5440    3.5557    3.0416 C.2     1  LIG1        0.0000
      7 C7          2.5503    4.8542    3.6873 C.ar    1  LIG1        0.0000
      8 C8          3.7319    5.5882    3.6845 C.ar    1  LIG1        0.0000
      9 C9          3.7503    6.8349    4.3007 C.ar    1  LIG1        0.0000
     10 Cl10        5.2516    7.7913    4.3087 Cl      1  LIG1        0.0000
     11 C11         2.6076    7.3413    4.9100 C.ar    1  LIG1        0.0000
     12 Cl12        2.6506    8.9391    5.6934 Cl      1  LIG1        0.0000
     13 C13         1.4271    6.6053    4.9115 C.ar    1  LIG1        0.0000
     14 C14         1.4053    5.3576    4.2964 C.ar    1  LIG1        0.0000
     15 Cl15       -0.1106    4.4247    4.3050 Cl      1  LIG1        0.0000
     16 O16         1.5652    3.0765    2.3098 O.2     1  LIG1        0.0000
     17 H          -0.7926    1.1006    0.1401 H       1  LIG1        0.0000
     18 H           1.4775    0.8010    0.1442 H       1  LIG1        0.0000
     19 H           0.8010    0.1442    1.4775 H       1  LIG1        0.0000
     20 H           3.6097    0.6939    2.1738 H       1  LIG1        0.0000
     21 H           4.4223    2.7379    3.5952 H       1  LIG1        0.0000
     22 H           4.5545    5.2254    3.2467 H       1  LIG1        0.0000
     23 H           0.6046    6.9684    5.3493 H       1  LIG1        0.0000
@<TRIPOS>BOND
     1     1     2    1
     2     2     3    1
     3     3     4    2
     4     4     5    1
     5     5     6    2
     6     6     7    1
     7     7     8   ar
     8     8     9   ar
     9     9    10    1
    10     9    11   ar
    11    11    12    1
    12    11    13   ar
    13    13    14   ar
    14    14     7   ar
    15    14    15    1
    16     6    16    1
    17    16     3    1
    18     1    17    1
    19     2    18    1
    20     2    19    1
    21     4    20    1
    22     5    21    1
    23     8    22    1
    24    13    23    1
