@<TRIPOS>MOLECULE

  22   23
SMALL
USER_CHARGES
@<TRIPOS>ATOM
   1 C1          -1.0736    -0.8549    -0.0272 C.3          1    LIG   0.0000
   2 N2           0.0809     0.0582    -0.0218 N.pl3        1    LIG   0.0000
   3 C3           1.3959    -0.3089    -0.0398 C.2          1    LIG   0.0000
   4 N4           2.0997     0.8041    -0.0254 N.2          1    LIG   0.0000
   5 N5           1.2748     1.8431    -0.0058 N.2          1    LIG   0.0000
   6 C6           0.0308     1.4245     0.0014 C.2          1    LIG   0.0000
   7 C7          -1.1574     2.2561     0.0266 C.ar         1    LIG   0.0000
   8 C8          -1.0259     3.6414     0.0458 C.ar         1    LIG   0.0000
   9 C9          -2.1595     4.4468     0.0705 C.ar         1    LIG   0.0000
  10 C10         -3.4155     3.8494     0.0768 C.ar         1    LIG   0.0000
  11 O11         -4.5197     4.6261     0.1011 O.3          1    LIG   0.0000
  12 C12         -3.5569     2.4660     0.0584 C.ar         1    LIG   0.0000
  13 C13         -2.4177     1.6680     0.0325 C.ar         1    LIG   0.0000
  14 H           -0.7502    -1.8010    -0.0456 H            1    LIG   0.0000
  15 H           -1.6205    -0.7056     0.7966 H            1    LIG   0.0000
  16 H           -1.6343    -0.6785    -0.8361 H            1    LIG   0.0000
  17 H            1.7550    -1.2419    -0.0601 H            1    LIG   0.0000
  18 H           -0.1167     4.0576     0.0418 H            1    LIG   0.0000
  19 H           -2.0726     5.4430     0.0835 H            1    LIG   0.0000
  20 H           -5.4268     4.2054     0.1058 H            1    LIG   0.0000
  21 H           -4.4663     2.0501     0.0637 H            1    LIG   0.0000
  22 H           -2.5049     0.6719     0.0180 H            1    LIG   0.0000
@<TRIPOS>BOND
   1        1        2 1
   2        2        3 1
   3        3        4 2
   4        4        5 1
   5        5        6 2
   6        6        2 1
   7        6        7 1
   8        7        8 ar
   9        8        9 ar
  10        9       10 ar
  11       10       11 1
  12       10       12 ar
  13       12       13 ar
  14       13        7 ar
  15        1       14 1
  16        1       15 1
  17        1       16 1
  18        3       17 1
  19        8       18 1
  20        9       19 1
  21       11       20 1
  22       12       21 1
  23       13       22 1

@<TRIPOS>MOLECULE

  22   23
SMALL
USER_CHARGES
@<TRIPOS>ATOM
   1 C1          -1.0736    -0.8549    -0.0272 C.3          1    LIG   0.0000
   2 N2           0.0809     0.0582    -0.0218 N.pl3        1    LIG   0.0000
   3 C3           1.3959    -0.3089    -0.0398 C.2          1    LIG   0.0000
   4 N4           2.0997     0.8041    -0.0254 N.2          1    LIG   0.0000
   5 N5           1.2748     1.8431    -0.0058 N.2          1    LIG   0.0000
   6 C6           0.0308     1.4245     0.0014 C.2          1    LIG   0.0000
   7 C7          -1.1574     2.2561     0.0266 C.ar         1    LIG   0.0000
   8 C8          -1.1254     3.5176    -0.5603 C.ar         1    LIG   0.0000
   9 C9          -2.2597     4.3222    -0.5406 C.ar         1    LIG   0.0000
  10 C10         -3.4157     3.8492     0.0711 C.ar         1    LIG   0.0000
  11 O11         -4.5200     4.6259     0.0937 O.3          1    LIG   0.0000
  12 C12         -3.4572     2.5903     0.6608 C.ar         1    LIG   0.0000
  13 C13         -2.3184     1.7916     0.6354 C.ar         1    LIG   0.0000
  14 H           -0.7502    -1.8010    -0.0456 H            1    LIG   0.0000
  15 H           -1.6205    -0.7056     0.7966 H            1    LIG   0.0000
  16 H           -1.6343    -0.6785    -0.8361 H            1    LIG   0.0000
  17 H            1.7550    -1.2419    -0.0601 H            1    LIG   0.0000
  18 H           -0.2872     3.8454    -0.9960 H            1    LIG   0.0000
  19 H           -2.2443     5.2293    -0.9611 H            1    LIG   0.0000
  20 H           -5.3557     4.2941     0.5314 H            1    LIG   0.0000
  21 H           -4.2952     2.2633     1.0976 H            1    LIG   0.0000
  22 H           -2.3345     0.8839     1.0548 H            1    LIG   0.0000
@<TRIPOS>BOND
   1        1        2 1
   2        2        3 1
   3        3        4 2
   4        4        5 1
   5        5        6 2
   6        6        2 1
   7        6        7 1
   8        7        8 ar
   9        8        9 ar
  10        9       10 ar
  11       10       11 1
  12       10       12 ar
  13       12       13 ar
  14       13        7 ar
  15        1       14 1
  16        1       15 1
  17        1       16 1
  18        3       17 1
  19        8       18 1
  20        9       19 1
  21       11       20 1
  22       12       21 1
  23       13       22 1

@<TRIPOS>MOLECULE

  22   23
SMALL
USER_CHARGES
@<TRIPOS>ATOM
   1 C1          -1.0736    -0.8549    -0.0272 C.3          1    LIG   0.0000
   2 N2           0.0809     0.0582    -0.0218 N.pl3        1    LIG   0.0000
   3 C3           1.3959    -0.3089    -0.0398 C.2          1    LIG   0.0000
   4 N4           2.0997     0.8041    -0.0254 N.2          1    LIG   0.0000
   5 N5           1.2748     1.8431    -0.0058 N.2          1    LIG   0.0000
   6 C6           0.0308     1.4245     0.0014 C.2          1    LIG   0.0000
   7 C7          -1.1574     2.2561     0.0266 C.ar         1    LIG   0.0000
   8 C8          -1.1124     3.4996     0.6499 C.ar         1    LIG   0.0000
   9 C9          -2.2468     4.3036     0.6795 C.ar         1    LIG   0.0000
  10 C10         -3.4168     3.8473     0.0819 C.ar         1    LIG   0.0000
  11 O11         -4.5215     4.6232     0.1077 O.3          1    LIG   0.0000
  12 C12         -3.4717     2.6060    -0.5428 C.ar         1    LIG   0.0000
  13 C13         -2.3319     1.8087    -0.5688 C.ar         1    LIG   0.0000
  14 H           -0.7502    -1.8010    -0.0456 H            1    LIG   0.0000
  15 H           -1.6205    -0.7056     0.7966 H            1    LIG   0.0000
  16 H           -1.6343    -0.6785    -0.8361 H            1    LIG   0.0000
  17 H            1.7550    -1.2419    -0.0601 H            1    LIG   0.0000
  18 H           -0.2646     3.8149     1.0764 H            1    LIG   0.0000
  19 H           -2.2215     5.1986     1.1248 H            1    LIG   0.0000
  20 H           -5.3673     4.3034    -0.3194 H            1    LIG   0.0000
  21 H           -4.3200     2.2904    -0.9681 H            1    LIG   0.0000
  22 H           -2.3571     0.9143    -1.0155 H            1    LIG   0.0000
@<TRIPOS>BOND
   1        1        2 1
   2        2        3 1
   3        3        4 2
   4        4        5 1
   5        5        6 2
   6        6        2 1
   7        6        7 1
   8        7        8 ar
   9        8        9 ar
  10        9       10 ar
  11       10       11 1
  12       10       12 ar
  13       12       13 ar
  14       13        7 ar
  15        1       14 1
  16        1       15 1
  17        1       16 1
  18        3       17 1
  19        8       18 1
  20        9       19 1
  21       11       20 1
  22       12       21 1
  23       13       22 1

@<TRIPOS>MOLECULE

  22   23
SMALL
USER_CHARGES
@<TRIPOS>ATOM
   1 C1          -1.0736    -0.8549    -0.0272 C.3          1    LIG   0.0000
   2 N2           0.0809     0.0582    -0.0218 N.pl3        1    LIG   0.0000
   3 C3           1.3959    -0.3089    -0.0398 C.2          1    LIG   0.0000
   4 N4           2.0997     0.8041    -0.0254 N.2          1    LIG   0.0000
   5 N5           1.2748     1.8431    -0.0058 N.2          1    LIG   0.0000
   6 C6           0.0308     1.4245     0.0014 C.2          1    LIG   0.0000
   7 C7          -1.1574     2.2561     0.0266 C.ar         1    LIG   0.0000
   8 C8          -1.3843     3.1612    -1.0059 C.ar         1    LIG   0.0000
   9 C9          -2.5206     3.9630    -0.9901 C.ar         1    LIG   0.0000
  10 C10         -3.4176     3.8467     0.0664 C.ar         1    LIG   0.0000
  11 O11         -4.5223     4.6227     0.0875 O.3          1    LIG   0.0000
  12 C12         -3.1992     2.9456     1.1030 C.ar         1    LIG   0.0000
  13 C13         -2.0606     2.1465     1.0785 C.ar         1    LIG   0.0000
  14 H           -0.7502    -1.8010    -0.0456 H            1    LIG   0.0000
  15 H           -1.6205    -0.7056     0.7966 H            1    LIG   0.0000
  16 H           -1.6343    -0.6785    -0.8361 H            1    LIG   0.0000
  17 H            1.7550    -1.2419    -0.0601 H            1    LIG   0.0000
  18 H           -0.7305     3.2350    -1.7590 H            1    LIG   0.0000
  19 H           -2.6905     4.6150    -1.7290 H            1    LIG   0.0000
  20 H           -5.1729     4.5459     0.8431 H            1    LIG   0.0000
  21 H           -3.8524     2.8729     1.8566 H            1    LIG   0.0000
  22 H           -1.8917     1.4937     1.8169 H            1    LIG   0.0000
@<TRIPOS>BOND
   1        1        2 1
   2        2        3 1
   3        3        4 2
   4        4        5 1
   5        5        6 2
   6        6        2 1
   7        6        7 1
   8        7        8 ar
   9        8        9 ar
  10        9       10 ar
  11       10       11 1
  12       10       12 ar
  13       12       13 ar
  14       13        7 ar
  15        1       14 1
  16        1       15 1
  17        1       16 1
  18        3       17 1
  19        8       18 1
  20        9       19 1
  21       11       20 1
  22       12       21 1
  23       13       22 1

@<TRIPOS>MOLECULE

  22   23
SMALL
USER_CHARGES
@<TRIPOS>ATOM
   1 C1          -1.0736    -0.8549    -0.0272 C.3          1    LIG   0.0000
   2 N2           0.0809     0.0582    -0.0218 N.pl3        1    LIG   0.0000
   3 C3           1.3959    -0.3089    -0.0398 C.2          1    LIG   0.0000
   4 N4           2.0997     0.8041    -0.0254 N.2          1    LIG   0.0000
   5 N5           1.2748     1.8431    -0.0058 N.2          1    LIG   0.0000
   6 C6           0.0308     1.4245     0.0014 C.2          1    LIG   0.0000
   7 C7          -1.1574     2.2561     0.0266 C.ar         1    LIG   0.0000
   8 C8          -1.3617     3.1301     1.0902 C.ar         1    LIG   0.0000
   9 C9          -2.4982     3.9309     1.1232 C.ar         1    LIG   0.0000
  10 C10         -3.4195     3.8434     0.0850 C.ar         1    LIG   0.0000
  11 O11         -4.5250     4.6181     0.1116 O.3          1    LIG   0.0000
  12 C12         -3.2244     2.9727    -0.9818 C.ar         1    LIG   0.0000
  13 C13         -2.0841     2.1761    -1.0074 C.ar         1    LIG   0.0000
  14 H           -0.7502    -1.8010    -0.0456 H            1    LIG   0.0000
  15 H           -1.6205    -0.7056     0.7966 H            1    LIG   0.0000
  16 H           -1.6343    -0.6785    -0.8361 H            1    LIG   0.0000
  17 H            1.7550    -1.2419    -0.0601 H            1    LIG   0.0000
  18 H           -0.6914     3.1822     1.8305 H            1    LIG   0.0000
  19 H           -2.6511     4.5618     1.8839 H            1    LIG   0.0000
  20 H           -5.1929     4.5619    -0.6305 H            1    LIG   0.0000
  21 H           -3.8955     2.9198    -1.7212 H            1    LIG   0.0000
  22 H           -1.9308     1.5464    -1.7689 H            1    LIG   0.0000
@<TRIPOS>BOND
   1        1        2 1
   2        2        3 1
   3        3        4 2
   4        4        5 1
   5        5        6 2
   6        6        2 1
   7        6        7 1
   8        7        8 ar
   9        8        9 ar
  10        9       10 ar
  11       10       11 1
  12       10       12 ar
  13       12       13 ar
  14       13        7 ar
  15        1       14 1
  16        1       15 1
  17        1       16 1
  18        3       17 1
  19        8       18 1
  20        9       19 1
  21       11       20 1
  22       12       21 1
  23       13       22 1

