@<TRIPOS>MOLECULE
*****
 22 23 0 0 0
SMALL
USER_CHARGES

@<TRIPOS>ATOM
      1 C1         -1.0736   -0.8549   -0.0272 C.3     1  LIG1        0.0000
      2 N2          0.0809    0.0582   -0.0218 N.pl3   1  LIG1        0.0000
      3 C3          1.3959   -0.3089   -0.0398 C.2     1  LIG1        0.0000
      4 N4          2.0997    0.8041   -0.0254 N.2     1  LIG1        0.0000
      5 N5          1.2748    1.8431   -0.0058 N.2     1  LIG1        0.0000
      6 C6          0.0308    1.4245    0.0014 C.2     1  LIG1        0.0000
      7 C7         -1.1574    2.2561    0.0266 C.ar    1  LIG1        0.0000
      8 C8         -1.0259    3.6414    0.0458 C.ar    1  LIG1        0.0000
      9 C9         -2.1595    4.4468    0.0705 C.ar    1  LIG1        0.0000
     10 C10        -3.4155    3.8494    0.0768 C.ar    1  LIG1        0.0000
     11 O11        -4.5197    4.6261    0.1011 O.3     1  LIG1        0.0000
     12 C12        -3.5569    2.4660    0.0584 C.ar    1  LIG1        0.0000
     13 C13        -2.4177    1.6680    0.0325 C.ar    1  LIG1        0.0000
     14 H          -0.7502   -1.8010   -0.0456 H       1  LIG1        0.0000
     15 H          -1.6205   -0.7056    0.7966 H       1  LIG1        0.0000
     16 H          -1.6343   -0.6785   -0.8361 H       1  LIG1        0.0000
     17 H           1.7550   -1.2419   -0.0601 H       1  LIG1        0.0000
     18 H          -0.1167    4.0576    0.0418 H       1  LIG1        0.0000
     19 H          -2.0726    5.4430    0.0835 H       1  LIG1        0.0000
     20 H          -5.4268    4.2054    0.1058 H       1  LIG1        0.0000
     21 H          -4.4663    2.0501    0.0637 H       1  LIG1        0.0000
     22 H          -2.5049    0.6719    0.0180 H       1  LIG1        0.0000
@<TRIPOS>BOND
     1     1     2    1
     2     2     3    1
     3     3     4    2
     4     4     5    1
     5     5     6    2
     6     6     2    1
     7     6     7    1
     8     7     8   ar
     9     8     9   ar
    10     9    10   ar
    11    10    11    1
    12    10    12   ar
    13    12    13   ar
    14    13     7   ar
    15     1    14    1
    16     1    15    1
    17     1    16    1
    18     3    17    1
    19     8    18    1
    20     9    19    1
    21    11    20    1
    22    12    21    1
    23    13    22    1
