@<TRIPOS>MOLECULE
*****
 24 24 0 0 0
SMALL
USER_CHARGES

@<TRIPOS>ATOM
      1 C1          3.6375   -2.1247   -0.0481 C.3     1  LIG1        0.0000
      2 N2          3.6179   -0.6549   -0.0358 N.pl3   1  LIG1        0.0000
      3 C3          4.8809    0.0971   -0.0402 C.3     1  LIG1        0.0000
      4 C4          2.3959    0.0289   -0.0199 C.ar    1  LIG1        0.0000
      5 C5          2.3821    1.4198   -0.0083 C.ar    1  LIG1        0.0000
      6 C6          1.1701    2.1026    0.0076 C.ar    1  LIG1        0.0000
      7 C7         -0.0171    1.3775    0.0095 C.ar    1  LIG1        0.0000
      8 S8         -1.5352    2.2275    0.0286 S.3     1  LIG1        0.0000
      9 C9         -2.4807    1.3188    1.2762 C.3     1  LIG1        0.0000
     10 Cl10       -1.3668    0.6426    2.4887 Cl      1  LIG1        0.0000
     11 Cl11       -3.6261    2.4236    2.0736 Cl      1  LIG1        0.0000
     12 Cl12       -3.3791   -0.0033    0.4931 Cl      1  LIG1        0.0000
     13 C13        -0.0132   -0.0136   -0.0027 C.ar    1  LIG1        0.0000
     14 C14         1.2036   -0.6878   -0.0173 C.ar    1  LIG1        0.0000
     15 H           4.5846   -2.4454   -0.0587 H       1  LIG1        0.0000
     16 H           3.1774   -2.4711    0.7695 H       1  LIG1        0.0000
     17 H           3.1637   -2.4576   -0.8634 H       1  LIG1        0.0000
     18 H           5.6496   -0.5425   -0.0519 H       1  LIG1        0.0000
     19 H           4.9194    0.6794   -0.8522 H       1  LIG1        0.0000
     20 H           4.9331    0.6659    0.7806 H       1  LIG1        0.0000
     21 H           3.2429    1.9286   -0.0114 H       1  LIG1        0.0000
     22 H           1.1526    3.1024    0.0174 H       1  LIG1        0.0000
     23 H          -0.8740   -0.5224   -0.0011 H       1  LIG1        0.0000
     24 H           1.2211   -1.6876   -0.0259 H       1  LIG1        0.0000
@<TRIPOS>BOND
     1     1     2    1
     2     2     3    1
     3     2     4    1
     4     4     5   ar
     5     5     6   ar
     6     6     7   ar
     7     7     8    1
     8     8     9    1
     9     9    10    1
    10     9    11    1
    11     9    12    1
    12     7    13   ar
    13    13    14   ar
    14    14     4   ar
    15     1    15    1
    16     1    16    1
    17     1    17    1
    18     3    18    1
    19     3    19    1
    20     3    20    1
    21     5    21    1
    22     6    22    1
    23    13    23    1
    24    14    24    1
