@<TRIPOS>MOLECULE

  60   64
SMALL
USER_CHARGES
@<TRIPOS>ATOM
   1 C1           3.0964    -6.4358     1.0383 C.3          1    LIG   0.0000
   2 C2           1.8750    -5.5311     1.0347 C.3          1    LIG   0.0000
   3 C3           2.3207    -4.0779     1.0287 C.ar         1    LIG   0.0000
   4 C4           2.5214    -3.4192     2.2378 C.ar         1    LIG   0.0000
   5 C5           2.9295    -2.0898     2.2258 C.ar         1    LIG   0.0000
   6 C6           3.1312    -1.4349     1.0147 C.ar         1    LIG   0.0000
   7 N7           3.5412    -0.0961     1.0083 N.pl3        1    LIG   0.0000
   8 C8           2.7401     1.0000     1.0000 C.2          1    LIG   0.0000
   9 S9           1.0000     1.0000     1.0000 S.3          1    LIG   0.0000
  10 C10          0.6052    -0.7664     1.0120 C.3          1    LIG   0.0000
  11 C11         -0.9039    -0.9482     1.0132 C.2          1    LIG   0.0000
  12 O12         -1.6239     0.0117     1.0067 O.2          1    LIG   0.0000
  13 N13         -1.4550    -2.2384     1.0220 N.am         1    LIG   0.0000
  14 C14         -2.9152    -2.4576     1.0297 C.3          1    LIG   0.0000
  15 C15         -3.2708    -3.5627     0.0429 C.ar         1    LIG   0.0000
  16 C16         -4.6162    -3.7778    -0.2319 C.ar         1    LIG   0.0000
  17 C17         -4.9794    -4.7459    -1.1627 C.ar         1    LIG   0.0000
  18 C18         -4.0007    -5.4939    -1.8094 C.ar         1    LIG   0.0000
  19 C19         -2.6529    -5.2861    -1.5351 C.ar         1    LIG   0.0000
  20 C20         -2.2981    -4.3197    -0.6064 C.ar         1    LIG   0.0000
  21 C21         -0.8233    -4.0992    -0.3205 C.3          1    LIG   0.0000
  22 C22         -0.6062    -3.4402     1.0301 C.3          1    LIG   0.0000
  23 C23         -0.9458    -4.4034     2.1553 C.2          1    LIG   0.0000
  24 O24         -1.6082    -5.4360     1.9156 O.co2        1    LIG   0.0000
  25 O25         -0.5750    -4.1708     3.2834 O.co2        1    LIG  -1.0000
  26 N26          3.5119     2.0619     0.9928 N.2          1    LIG   0.0000
  27 N27          4.7676     1.6712     0.9962 N.2          1    LIG   0.0000
  28 C28          4.8211     0.3616     1.0055 C.2          1    LIG   0.0000
  29 C29          6.0270    -0.4458     1.0107 C.ar         1    LIG   0.0000
  30 C30          7.2759     0.1657     1.0058 C.ar         1    LIG   0.0000
  31 C31          8.4096    -0.6401     1.0102 C.ar         1    LIG   0.0000
  32 N32          8.3029    -1.9772     1.0199 N.ar         1    LIG   0.0000
  33 C33          7.1064    -2.5837     1.0257 C.ar         1    LIG   0.0000
  34 C34          5.9352    -1.8336     1.0215 C.ar         1    LIG   0.0000
  35 C35          2.9314    -2.0938    -0.1939 C.ar         1    LIG   0.0000
  36 C36          2.5239    -3.4236    -0.1817 C.ar         1    LIG   0.0000
  37 H            0.3518    -3.1651     1.1111 H            1    LIG   0.0000
  38 H            2.8032    -7.3918     1.0423 H            1    LIG   0.0000
  39 H            3.6448    -6.2587     0.2210 H            1    LIG   0.0000
  40 H            3.6449    -6.2520     1.8540 H            1    LIG   0.0000
  41 H            1.3264    -5.7149     0.2190 H            1    LIG   0.0000
  42 H            1.3266    -5.7082     1.8520 H            1    LIG   0.0000
  43 H            2.3740    -3.8958     3.1045 H            1    LIG   0.0000
  44 H            3.0779    -1.6045     3.0874 H            1    LIG   0.0000
  45 H            0.9925    -1.1890     1.8314 H            1    LIG   0.0000
  46 H            0.9925    -1.2000     0.1984 H            1    LIG   0.0000
  47 H           -3.3801    -1.6127     0.7651 H            1    LIG   0.0000
  48 H           -3.2068    -2.7250     1.9482 H            1    LIG   0.0000
  49 H           -5.3179    -3.2407     0.2361 H            1    LIG   0.0000
  50 H           -5.9453    -4.9042    -1.3673 H            1    LIG   0.0000
  51 H           -4.2688    -6.1877    -2.4778 H            1    LIG   0.0000
  52 H           -1.9509    -5.8252    -2.0005 H            1    LIG   0.0000
  53 H           -0.4392    -3.5122    -1.0332 H            1    LIG   0.0000
  54 H           -0.3558    -4.9831    -0.3289 H            1    LIG   0.0000
  55 H            7.3571     1.1623     0.9992 H            1    LIG   0.0000
  56 H            9.3158    -0.2173     1.0062 H            1    LIG   0.0000
  57 H            7.0562    -3.5824     1.0330 H            1    LIG   0.0000
  58 H            5.0425    -2.2843     1.0262 H            1    LIG   0.0000
  59 H            3.0790    -1.6174    -1.0606 H            1    LIG   0.0000
  60 H            2.3770    -3.9094    -1.0434 H            1    LIG   0.0000
@<TRIPOS>BOND
   1        1        2 1
   2        2        3 1
   3        3        4 ar
   4        4        5 ar
   5        5        6 ar
   6        6        7 1
   7        7        8 1
   8        8        9 1
   9        9       10 1
  10       10       11 1
  11       11       12 2
  12       11       13 am
  13       13       14 1
  14       14       15 1
  15       15       16 ar
  16       16       17 ar
  17       17       18 ar
  18       18       19 ar
  19       19       20 ar
  20       20       15 ar
  21       20       21 1
  22       21       22 1
  23       22       13 1
  24       22       23 1
  25       23       24 ar
  26       23       25 ar
  27        8       26 2
  28       26       27 1
  29       27       28 2
  30       28        7 1
  31       28       29 1
  32       29       30 ar
  33       30       31 ar
  34       31       32 ar
  35       32       33 ar
  36       33       34 ar
  37       34       29 ar
  38        6       35 ar
  39       35       36 ar
  40       36        3 ar
  41       22       37 1
  42        1       38 1
  43        1       39 1
  44        1       40 1
  45        2       41 1
  46        2       42 1
  47        4       43 1
  48        5       44 1
  49       10       45 1
  50       10       46 1
  51       14       47 1
  52       14       48 1
  53       16       49 1
  54       17       50 1
  55       18       51 1
  56       19       52 1
  57       21       53 1
  58       21       54 1
  59       30       55 1
  60       31       56 1
  61       33       57 1
  62       34       58 1
  63       35       59 1
  64       36       60 1

@<TRIPOS>MOLECULE

  60   64
SMALL
USER_CHARGES
@<TRIPOS>ATOM
   1 C1           3.0964    -6.4358     1.0383 C.3          1    LIG   0.0000
   2 C2           1.8750    -5.5311     1.0347 C.3          1    LIG   0.0000
   3 C3           2.3207    -4.0779     1.0287 C.ar         1    LIG   0.0000
   4 C4           2.5214    -3.4192     2.2378 C.ar         1    LIG   0.0000
   5 C5           2.9295    -2.0898     2.2258 C.ar         1    LIG   0.0000
   6 C6           3.1312    -1.4349     1.0147 C.ar         1    LIG   0.0000
   7 N7           3.5412    -0.0961     1.0083 N.pl3        1    LIG   0.0000
   8 C8           2.7401     1.0000     1.0000 C.2          1    LIG   0.0000
   9 S9           1.0000     1.0000     1.0000 S.3          1    LIG   0.0000
  10 C10          0.6052    -0.7664     1.0120 C.3          1    LIG   0.0000
  11 C11         -0.9039    -0.9482     1.0132 C.2          1    LIG   0.0000
  12 O12         -1.4996    -1.0270    -0.0255 O.2          1    LIG   0.0000
  13 N13         -1.5992    -1.0238     2.2267 N.am         1    LIG   0.0000
  14 C14         -0.8163    -0.9265     3.4681 C.3          1    LIG   0.0000
  15 C15         -1.6963    -0.4779     4.6237 C.ar         1    LIG   0.0000
  16 C16         -1.2321     0.3626     5.6298 C.ar         1    LIG   0.0000
  17 C17         -2.0646     0.7411     6.6779 C.ar         1    LIG   0.0000
  18 C18         -3.3712     0.2692     6.7327 C.ar         1    LIG   0.0000
  19 C19         -3.8504    -0.5703     5.7331 C.ar         1    LIG   0.0000
  20 C20         -3.0137    -0.9174     4.6804 C.ar         1    LIG   0.0000
  21 C21         -3.5628    -1.7876     3.5634 C.3          1    LIG   0.0000
  22 C22         -3.0614    -1.1998     2.2532 C.3          1    LIG   0.0000
  23 C23         -3.4359    -2.1099     1.0937 C.2          1    LIG   0.0000
  24 O24         -4.5978    -2.0896     0.6332 O.co2        1    LIG   0.0000
  25 O25         -2.6090    -2.8537     0.6170 O.co2        1    LIG  -1.0000
  26 N26          3.5119     2.0619     0.9928 N.2          1    LIG   0.0000
  27 N27          4.7676     1.6712     0.9962 N.2          1    LIG   0.0000
  28 C28          4.8211     0.3616     1.0055 C.2          1    LIG   0.0000
  29 C29          6.0270    -0.4458     1.0107 C.ar         1    LIG   0.0000
  30 C30          7.2759     0.1657     1.0058 C.ar         1    LIG   0.0000
  31 C31          8.4096    -0.6401     1.0102 C.ar         1    LIG   0.0000
  32 N32          8.3029    -1.9772     1.0199 N.ar         1    LIG   0.0000
  33 C33          7.1064    -2.5837     1.0257 C.ar         1    LIG   0.0000
  34 C34          5.9352    -1.8336     1.0215 C.ar         1    LIG   0.0000
  35 C35          2.9314    -2.0938    -0.1939 C.ar         1    LIG   0.0000
  36 C36          2.5239    -3.4236    -0.1817 C.ar         1    LIG   0.0000
  37 H           -3.4944    -0.3091     2.1146 H            1    LIG   0.0000
  38 H            2.8032    -7.3918     1.0423 H            1    LIG   0.0000
  39 H            3.6448    -6.2587     0.2210 H            1    LIG   0.0000
  40 H            3.6449    -6.2520     1.8540 H            1    LIG   0.0000
  41 H            1.3264    -5.7149     0.2190 H            1    LIG   0.0000
  42 H            1.3266    -5.7082     1.8520 H            1    LIG   0.0000
  43 H            2.3740    -3.8958     3.1045 H            1    LIG   0.0000
  44 H            3.0779    -1.6045     3.0874 H            1    LIG   0.0000
  45 H            0.9925    -1.1890     1.8314 H            1    LIG   0.0000
  46 H            0.9925    -1.2000     0.1984 H            1    LIG   0.0000
  47 H           -0.0789    -0.2632     3.3401 H            1    LIG   0.0000
  48 H           -0.4258    -1.8221     3.6811 H            1    LIG   0.0000
  49 H           -0.2906     0.6982     5.5995 H            1    LIG   0.0000
  50 H           -1.7234     1.3525     7.3919 H            1    LIG   0.0000
  51 H           -3.9667     0.5336     7.4913 H            1    LIG   0.0000
  52 H           -4.7865    -0.9199     5.7717 H            1    LIG   0.0000
  53 H           -4.5626    -1.7804     3.5826 H            1    LIG   0.0000
  54 H           -3.2342    -2.7264     3.6666 H            1    LIG   0.0000
  55 H            7.3571     1.1623     0.9992 H            1    LIG   0.0000
  56 H            9.3158    -0.2173     1.0062 H            1    LIG   0.0000
  57 H            7.0562    -3.5824     1.0330 H            1    LIG   0.0000
  58 H            5.0425    -2.2843     1.0262 H            1    LIG   0.0000
  59 H            3.0790    -1.6174    -1.0606 H            1    LIG   0.0000
  60 H            2.3770    -3.9094    -1.0434 H            1    LIG   0.0000
@<TRIPOS>BOND
   1        1        2 1
   2        2        3 1
   3        3        4 ar
   4        4        5 ar
   5        5        6 ar
   6        6        7 1
   7        7        8 1
   8        8        9 1
   9        9       10 1
  10       10       11 1
  11       11       12 2
  12       11       13 am
  13       13       14 1
  14       14       15 1
  15       15       16 ar
  16       16       17 ar
  17       17       18 ar
  18       18       19 ar
  19       19       20 ar
  20       20       15 ar
  21       20       21 1
  22       21       22 1
  23       22       13 1
  24       22       23 1
  25       23       24 ar
  26       23       25 ar
  27        8       26 2
  28       26       27 1
  29       27       28 2
  30       28        7 1
  31       28       29 1
  32       29       30 ar
  33       30       31 ar
  34       31       32 ar
  35       32       33 ar
  36       33       34 ar
  37       34       29 ar
  38        6       35 ar
  39       35       36 ar
  40       36        3 ar
  41       22       37 1
  42        1       38 1
  43        1       39 1
  44        1       40 1
  45        2       41 1
  46        2       42 1
  47        4       43 1
  48        5       44 1
  49       10       45 1
  50       10       46 1
  51       14       47 1
  52       14       48 1
  53       16       49 1
  54       17       50 1
  55       18       51 1
  56       19       52 1
  57       21       53 1
  58       21       54 1
  59       30       55 1
  60       31       56 1
  61       33       57 1
  62       34       58 1
  63       35       59 1
  64       36       60 1

@<TRIPOS>MOLECULE

  60   64
SMALL
USER_CHARGES
@<TRIPOS>ATOM
   1 C1           3.0964    -6.4358     1.0383 C.3          1    LIG   0.0000
   2 C2           1.8750    -5.5311     1.0347 C.3          1    LIG   0.0000
   3 C3           2.3207    -4.0779     1.0287 C.ar         1    LIG   0.0000
   4 C4           2.5214    -3.4192     2.2378 C.ar         1    LIG   0.0000
   5 C5           2.9295    -2.0898     2.2258 C.ar         1    LIG   0.0000
   6 C6           3.1312    -1.4349     1.0147 C.ar         1    LIG   0.0000
   7 N7           3.5412    -0.0961     1.0083 N.pl3        1    LIG   0.0000
   8 C8           2.7401     1.0000     1.0000 C.2          1    LIG   0.0000
   9 S9           1.0000     1.0000     1.0000 S.3          1    LIG   0.0000
  10 C10          0.6052    -0.7664     1.0120 C.3          1    LIG   0.0000
  11 C11         -0.9039    -0.9482     1.0132 C.2          1    LIG   0.0000
  12 O12         -1.4996    -1.0270    -0.0255 O.2          1    LIG   0.0000
  13 N13         -1.5999    -1.0238     2.2279 N.am         1    LIG   0.0000
  14 C14         -3.0603    -1.2029     2.1750 C.3          1    LIG   0.0000
  15 C15         -3.6725    -0.7166     3.4801 C.ar         1    LIG   0.0000
  16 C16         -4.9259    -0.1147     3.4764 C.ar         1    LIG   0.0000
  17 C17         -5.4703     0.3155     4.6822 C.ar         1    LIG   0.0000
  18 C18         -4.7891     0.1440     5.8828 C.ar         1    LIG   0.0000
  19 C19         -3.5357    -0.4584     5.8921 C.ar         1    LIG   0.0000
  20 C20         -2.9859    -0.8662     4.6813 C.ar         1    LIG   0.0000
  21 C21         -1.5938    -1.4822     4.6593 C.3          1    LIG   0.0000
  22 C22         -0.8240    -0.9219     3.4750 C.3          1    LIG   0.0000
  23 C23         -0.3896     0.5043     3.7789 C.2          1    LIG   0.0000
  24 O24          0.5902     0.7134     4.5263 O.co2        1    LIG   0.0000
  25 O25         -0.9927     1.4360     3.2970 O.co2        1    LIG  -1.0000
  26 N26          3.5119     2.0619     0.9928 N.2          1    LIG   0.0000
  27 N27          4.7676     1.6712     0.9962 N.2          1    LIG   0.0000
  28 C28          4.8211     0.3616     1.0055 C.2          1    LIG   0.0000
  29 C29          6.0270    -0.4458     1.0107 C.ar         1    LIG   0.0000
  30 C30          7.2759     0.1657     1.0058 C.ar         1    LIG   0.0000
  31 C31          8.4096    -0.6401     1.0102 C.ar         1    LIG   0.0000
  32 N32          8.3029    -1.9772     1.0199 N.ar         1    LIG   0.0000
  33 C33          7.1064    -2.5837     1.0257 C.ar         1    LIG   0.0000
  34 C34          5.9352    -1.8336     1.0215 C.ar         1    LIG   0.0000
  35 C35          2.9314    -2.0938    -0.1939 C.ar         1    LIG   0.0000
  36 C36          2.5239    -3.4236    -0.1817 C.ar         1    LIG   0.0000
  37 H            0.0029    -1.4730     3.3631 H            1    LIG   0.0000
  38 H            2.8032    -7.3918     1.0423 H            1    LIG   0.0000
  39 H            3.6448    -6.2587     0.2210 H            1    LIG   0.0000
  40 H            3.6449    -6.2520     1.8540 H            1    LIG   0.0000
  41 H            1.3264    -5.7149     0.2190 H            1    LIG   0.0000
  42 H            1.3266    -5.7082     1.8520 H            1    LIG   0.0000
  43 H            2.3740    -3.8958     3.1045 H            1    LIG   0.0000
  44 H            3.0779    -1.6045     3.0874 H            1    LIG   0.0000
  45 H            0.9925    -1.1890     1.8314 H            1    LIG   0.0000
  46 H            0.9925    -1.2000     0.1984 H            1    LIG   0.0000
  47 H           -3.2739    -2.1712     2.0458 H            1    LIG   0.0000
  48 H           -3.4344    -0.6744     1.4129 H            1    LIG   0.0000
  49 H           -5.4282     0.0071     2.6203 H            1    LIG   0.0000
  50 H           -6.3679     0.7563     4.6859 H            1    LIG   0.0000
  51 H           -5.2009     0.4539     6.7397 H            1    LIG   0.0000
  52 H           -3.0407    -0.5953     6.7501 H            1    LIG   0.0000
  53 H           -1.6680    -2.4756     4.5713 H            1    LIG   0.0000
  54 H           -1.1142    -1.2576     5.5076 H            1    LIG   0.0000
  55 H            7.3571     1.1623     0.9992 H            1    LIG   0.0000
  56 H            9.3158    -0.2173     1.0062 H            1    LIG   0.0000
  57 H            7.0562    -3.5824     1.0330 H            1    LIG   0.0000
  58 H            5.0425    -2.2843     1.0262 H            1    LIG   0.0000
  59 H            3.0790    -1.6174    -1.0606 H            1    LIG   0.0000
  60 H            2.3770    -3.9094    -1.0434 H            1    LIG   0.0000
@<TRIPOS>BOND
   1        1        2 1
   2        2        3 1
   3        3        4 ar
   4        4        5 ar
   5        5        6 ar
   6        6        7 1
   7        7        8 1
   8        8        9 1
   9        9       10 1
  10       10       11 1
  11       11       12 2
  12       11       13 am
  13       13       14 1
  14       14       15 1
  15       15       16 ar
  16       16       17 ar
  17       17       18 ar
  18       18       19 ar
  19       19       20 ar
  20       20       15 ar
  21       20       21 1
  22       21       22 1
  23       22       13 1
  24       22       23 1
  25       23       24 ar
  26       23       25 ar
  27        8       26 2
  28       26       27 1
  29       27       28 2
  30       28        7 1
  31       28       29 1
  32       29       30 ar
  33       30       31 ar
  34       31       32 ar
  35       32       33 ar
  36       33       34 ar
  37       34       29 ar
  38        6       35 ar
  39       35       36 ar
  40       36        3 ar
  41       22       37 1
  42        1       38 1
  43        1       39 1
  44        1       40 1
  45        2       41 1
  46        2       42 1
  47        4       43 1
  48        5       44 1
  49       10       45 1
  50       10       46 1
  51       14       47 1
  52       14       48 1
  53       16       49 1
  54       17       50 1
  55       18       51 1
  56       19       52 1
  57       21       53 1
  58       21       54 1
  59       30       55 1
  60       31       56 1
  61       33       57 1
  62       34       58 1
  63       35       59 1
  64       36       60 1

@<TRIPOS>MOLECULE

  60   64
SMALL
USER_CHARGES
@<TRIPOS>ATOM
   1 C1           3.0964    -6.4358     1.0383 C.3          1    LIG   0.0000
   2 C2           1.8750    -5.5311     1.0347 C.3          1    LIG   0.0000
   3 C3           2.3207    -4.0779     1.0287 C.ar         1    LIG   0.0000
   4 C4           2.5214    -3.4192     2.2378 C.ar         1    LIG   0.0000
   5 C5           2.9295    -2.0898     2.2258 C.ar         1    LIG   0.0000
   6 C6           3.1312    -1.4349     1.0147 C.ar         1    LIG   0.0000
   7 N7           3.5412    -0.0961     1.0083 N.pl3        1    LIG   0.0000
   8 C8           2.7401     1.0000     1.0000 C.2          1    LIG   0.0000
   9 S9           1.0000     1.0000     1.0000 S.3          1    LIG   0.0000
  10 C10          0.6052    -0.7664     1.0120 C.3          1    LIG   0.0000
  11 C11         -0.9039    -0.9482     1.0132 C.2          1    LIG   0.0000
  12 O12         -1.4996    -1.0129     2.0529 O.2          1    LIG   0.0000
  13 N13         -1.5992    -1.0402    -0.1991 N.am         1    LIG   0.0000
  14 C14         -0.8176    -0.9490    -1.4418 C.3          1    LIG   0.0000
  15 C15         -1.5677    -1.5940    -2.5960 C.ar         1    LIG   0.0000
  16 C16         -0.9187    -2.3004    -3.6031 C.ar         1    LIG   0.0000
  17 C17         -1.6392    -2.8660    -4.6499 C.ar         1    LIG   0.0000
  18 C18         -3.0206    -2.7180    -4.7025 C.ar         1    LIG   0.0000
  19 C19         -3.6839    -2.0162    -3.7020 C.ar         1    LIG   0.0000
  20 C20         -2.9519    -1.4801    -2.6506 C.ar         1    LIG   0.0000
  21 C21         -3.6902    -0.7650    -1.5326 C.3          1    LIG   0.0000
  22 C22         -3.0614    -1.2166    -0.2232 C.3          1    LIG   0.0000
  23 C23         -3.6395    -0.4213     0.9370 C.2          1    LIG   0.0000
  24 O24         -4.7626    -0.7169     1.3994 O.co2        1    LIG   0.0000
  25 O25         -3.0122     0.4977     1.4126 O.co2        1    LIG  -1.0000
  26 N26          3.5119     2.0619     0.9928 N.2          1    LIG   0.0000
  27 N27          4.7676     1.6712     0.9962 N.2          1    LIG   0.0000
  28 C28          4.8211     0.3616     1.0055 C.2          1    LIG   0.0000
  29 C29          6.0270    -0.4458     1.0107 C.ar         1    LIG   0.0000
  30 C30          7.2759     0.1657     1.0058 C.ar         1    LIG   0.0000
  31 C31          8.4096    -0.6401     1.0102 C.ar         1    LIG   0.0000
  32 N32          8.3029    -1.9772     1.0199 N.ar         1    LIG   0.0000
  33 C33          7.1064    -2.5837     1.0257 C.ar         1    LIG   0.0000
  34 C34          5.9352    -1.8336     1.0215 C.ar         1    LIG   0.0000
  35 C35          2.9314    -2.0938    -0.1939 C.ar         1    LIG   0.0000
  36 C36          2.5239    -3.4236    -0.1817 C.ar         1    LIG   0.0000
  37 H           -3.2702    -2.1846    -0.0842 H            1    LIG   0.0000
  38 H            2.8032    -7.3918     1.0423 H            1    LIG   0.0000
  39 H            3.6448    -6.2587     0.2210 H            1    LIG   0.0000
  40 H            3.6449    -6.2520     1.8540 H            1    LIG   0.0000
  41 H            1.3264    -5.7149     0.2190 H            1    LIG   0.0000
  42 H            1.3266    -5.7082     1.8520 H            1    LIG   0.0000
  43 H            2.3740    -3.8958     3.1045 H            1    LIG   0.0000
  44 H            3.0779    -1.6045     3.0874 H            1    LIG   0.0000
  45 H            0.9925    -1.1890     1.8314 H            1    LIG   0.0000
  46 H            0.9925    -1.2000     0.1984 H            1    LIG   0.0000
  47 H            0.0565    -1.4181    -1.3152 H            1    LIG   0.0000
  48 H           -0.6514     0.0137    -1.6553 H            1    LIG   0.0000
  49 H            0.0756    -2.4027    -3.5744 H            1    LIG   0.0000
  50 H           -1.1637    -3.3789    -5.3646 H            1    LIG   0.0000
  51 H           -3.5374    -3.1165    -5.4602 H            1    LIG   0.0000
  52 H           -4.6763    -1.8989    -3.7391 H            1    LIG   0.0000
  53 H           -4.6597    -1.0094    -1.5501 H            1    LIG   0.0000
  54 H           -3.5941     0.2250    -1.6360 H            1    LIG   0.0000
  55 H            7.3571     1.1623     0.9992 H            1    LIG   0.0000
  56 H            9.3158    -0.2173     1.0062 H            1    LIG   0.0000
  57 H            7.0562    -3.5824     1.0330 H            1    LIG   0.0000
  58 H            5.0425    -2.2843     1.0262 H            1    LIG   0.0000
  59 H            3.0790    -1.6174    -1.0606 H            1    LIG   0.0000
  60 H            2.3770    -3.9094    -1.0434 H            1    LIG   0.0000
@<TRIPOS>BOND
   1        1        2 1
   2        2        3 1
   3        3        4 ar
   4        4        5 ar
   5        5        6 ar
   6        6        7 1
   7        7        8 1
   8        8        9 1
   9        9       10 1
  10       10       11 1
  11       11       12 2
  12       11       13 am
  13       13       14 1
  14       14       15 1
  15       15       16 ar
  16       16       17 ar
  17       17       18 ar
  18       18       19 ar
  19       19       20 ar
  20       20       15 ar
  21       20       21 1
  22       21       22 1
  23       22       13 1
  24       22       23 1
  25       23       24 ar
  26       23       25 ar
  27        8       26 2
  28       26       27 1
  29       27       28 2
  30       28        7 1
  31       28       29 1
  32       29       30 ar
  33       30       31 ar
  34       31       32 ar
  35       32       33 ar
  36       33       34 ar
  37       34       29 ar
  38        6       35 ar
  39       35       36 ar
  40       36        3 ar
  41       22       37 1
  42        1       38 1
  43        1       39 1
  44        1       40 1
  45        2       41 1
  46        2       42 1
  47        4       43 1
  48        5       44 1
  49       10       45 1
  50       10       46 1
  51       14       47 1
  52       14       48 1
  53       16       49 1
  54       17       50 1
  55       18       51 1
  56       19       52 1
  57       21       53 1
  58       21       54 1
  59       30       55 1
  60       31       56 1
  61       33       57 1
  62       34       58 1
  63       35       59 1
  64       36       60 1

@<TRIPOS>MOLECULE

  60   64
SMALL
USER_CHARGES
@<TRIPOS>ATOM
   1 C1           3.0964    -6.4358     1.0383 C.3          1    LIG   0.0000
   2 C2           1.8750    -5.5311     1.0347 C.3          1    LIG   0.0000
   3 C3           2.3207    -4.0779     1.0287 C.ar         1    LIG   0.0000
   4 C4           2.5214    -3.4192     2.2378 C.ar         1    LIG   0.0000
   5 C5           2.9295    -2.0898     2.2258 C.ar         1    LIG   0.0000
   6 C6           3.1312    -1.4349     1.0147 C.ar         1    LIG   0.0000
   7 N7           3.5412    -0.0961     1.0083 N.pl3        1    LIG   0.0000
   8 C8           2.7401     1.0000     1.0000 C.2          1    LIG   0.0000
   9 S9           1.0000     1.0000     1.0000 S.3          1    LIG   0.0000
  10 C10          0.6052    -0.7664     1.0120 C.3          1    LIG   0.0000
  11 C11         -0.9039    -0.9482     1.0132 C.2          1    LIG   0.0000
  12 O12         -1.4996    -1.0129     2.0529 O.2          1    LIG   0.0000
  13 N13         -1.5999    -1.0403    -0.2004 N.am         1    LIG   0.0000
  14 C14         -3.0609    -1.2133    -0.1450 C.3          1    LIG   0.0000
  15 C15         -3.5422    -1.8314    -1.4492 C.ar         1    LIG   0.0000
  16 C16         -4.6167    -2.7138    -1.4436 C.ar         1    LIG   0.0000
  17 C17         -5.0453    -3.2612    -2.6486 C.ar         1    LIG   0.0000
  18 C18         -4.4263    -2.9330    -3.8503 C.ar         1    LIG   0.0000
  19 C19         -3.3519    -2.0501    -3.8615 C.ar         1    LIG   0.0000
  20 C20         -2.9127    -1.5231    -2.6516 C.ar         1    LIG   0.0000
  21 C21         -1.7068    -0.5941    -2.6316 C.3          1    LIG   0.0000
  22 C22         -0.8240    -0.9553    -1.4487 C.3          1    LIG   0.0000
  23 C23         -0.0638    -2.2375    -1.7535 C.2          1    LIG   0.0000
  24 O24          0.9365    -2.2080    -2.5026 O.co2        1    LIG   0.0000
  25 O25         -0.4275    -3.2858    -1.2709 O.co2        1    LIG  -1.0000
  26 N26          3.5119     2.0619     0.9928 N.2          1    LIG   0.0000
  27 N27          4.7676     1.6712     0.9962 N.2          1    LIG   0.0000
  28 C28          4.8211     0.3616     1.0055 C.2          1    LIG   0.0000
  29 C29          6.0270    -0.4458     1.0107 C.ar         1    LIG   0.0000
  30 C30          7.2759     0.1657     1.0058 C.ar         1    LIG   0.0000
  31 C31          8.4096    -0.6401     1.0102 C.ar         1    LIG   0.0000
  32 N32          8.3029    -1.9772     1.0199 N.ar         1    LIG   0.0000
  33 C33          7.1064    -2.5837     1.0257 C.ar         1    LIG   0.0000
  34 C34          5.9352    -1.8336     1.0215 C.ar         1    LIG   0.0000
  35 C35          2.9314    -2.0938    -0.1939 C.ar         1    LIG   0.0000
  36 C36          2.5239    -3.4236    -0.1817 C.ar         1    LIG   0.0000
  37 H           -0.1515    -0.2235    -1.3381 H            1    LIG   0.0000
  38 H            2.8032    -7.3918     1.0423 H            1    LIG   0.0000
  39 H            3.6448    -6.2587     0.2210 H            1    LIG   0.0000
  40 H            3.6449    -6.2520     1.8540 H            1    LIG   0.0000
  41 H            1.3264    -5.7149     0.2190 H            1    LIG   0.0000
  42 H            1.3266    -5.7082     1.8520 H            1    LIG   0.0000
  43 H            2.3740    -3.8958     3.1045 H            1    LIG   0.0000
  44 H            3.0779    -1.6045     3.0874 H            1    LIG   0.0000
  45 H            0.9925    -1.1890     1.8314 H            1    LIG   0.0000
  46 H            0.9925    -1.2000     0.1984 H            1    LIG   0.0000
  47 H           -3.4982    -0.3234    -0.0153 H            1    LIG   0.0000
  48 H           -3.2976    -1.8153     0.6176 H            1    LIG   0.0000
  49 H           -5.0743    -2.9512    -0.5868 H            1    LIG   0.0000
  50 H           -5.8125    -3.9026    -2.6510 H            1    LIG   0.0000
  51 H           -4.7541    -3.3321    -4.7066 H            1    LIG   0.0000
  52 H           -2.9050    -1.7997    -4.7203 H            1    LIG   0.0000
  53 H           -2.0147     0.3532    -2.5433 H            1    LIG   0.0000
  54 H           -1.1889    -0.6985    -3.4807 H            1    LIG   0.0000
  55 H            7.3571     1.1623     0.9992 H            1    LIG   0.0000
  56 H            9.3158    -0.2173     1.0062 H            1    LIG   0.0000
  57 H            7.0562    -3.5824     1.0330 H            1    LIG   0.0000
  58 H            5.0425    -2.2843     1.0262 H            1    LIG   0.0000
  59 H            3.0790    -1.6174    -1.0606 H            1    LIG   0.0000
  60 H            2.3770    -3.9094    -1.0434 H            1    LIG   0.0000
@<TRIPOS>BOND
   1        1        2 1
   2        2        3 1
   3        3        4 ar
   4        4        5 ar
   5        5        6 ar
   6        6        7 1
   7        7        8 1
   8        8        9 1
   9        9       10 1
  10       10       11 1
  11       11       12 2
  12       11       13 am
  13       13       14 1
  14       14       15 1
  15       15       16 ar
  16       16       17 ar
  17       17       18 ar
  18       18       19 ar
  19       19       20 ar
  20       20       15 ar
  21       20       21 1
  22       21       22 1
  23       22       13 1
  24       22       23 1
  25       23       24 ar
  26       23       25 ar
  27        8       26 2
  28       26       27 1
  29       27       28 2
  30       28        7 1
  31       28       29 1
  32       29       30 ar
  33       30       31 ar
  34       31       32 ar
  35       32       33 ar
  36       33       34 ar
  37       34       29 ar
  38        6       35 ar
  39       35       36 ar
  40       36        3 ar
  41       22       37 1
  42        1       38 1
  43        1       39 1
  44        1       40 1
  45        2       41 1
  46        2       42 1
  47        4       43 1
  48        5       44 1
  49       10       45 1
  50       10       46 1
  51       14       47 1
  52       14       48 1
  53       16       49 1
  54       17       50 1
  55       18       51 1
  56       19       52 1
  57       21       53 1
  58       21       54 1
  59       30       55 1
  60       31       56 1
  61       33       57 1
  62       34       58 1
  63       35       59 1
  64       36       60 1

@<TRIPOS>MOLECULE

  60   64
SMALL
USER_CHARGES
@<TRIPOS>ATOM
   1 C1           3.0964     1.0383     8.4358 C.3          1    LIG   0.0000
   2 C2           1.8750     1.0347     7.5311 C.3          1    LIG   0.0000
   3 C3           2.3207     1.0287     6.0779 C.ar         1    LIG   0.0000
   4 C4           2.5214     2.2378     5.4192 C.ar         1    LIG   0.0000
   5 C5           2.9295     2.2258     4.0898 C.ar         1    LIG   0.0000
   6 C6           3.1312     1.0147     3.4349 C.ar         1    LIG   0.0000
   7 N7           3.5412     1.0083     2.0961 N.pl3        1    LIG   0.0000
   8 C8           2.7401     1.0000     1.0000 C.2          1    LIG   0.0000
   9 S9           1.0000     1.0000     1.0000 S.3          1    LIG   0.0000
  10 C10          0.6052    -0.7664     1.0120 C.3          1    LIG   0.0000
  11 C11         -0.9039    -0.9482     1.0132 C.2          1    LIG   0.0000
  12 O12         -1.6239     0.0117     1.0067 O.2          1    LIG   0.0000
  13 N13         -1.4546    -2.2375     1.0220 N.am         1    LIG   0.0000
  14 C14         -0.5285    -3.3819     1.0324 C.3          1    LIG   0.0000
  15 C15         -1.2447    -4.6113     0.4935 C.ar         1    LIG   0.0000
  16 C16         -0.5416    -5.5544    -0.2477 C.ar         1    LIG   0.0000
  17 C17         -1.2145    -6.6749    -0.7243 C.ar         1    LIG   0.0000
  18 C18         -2.5669    -6.8690    -0.4630 C.ar         1    LIG   0.0000
  19 C19         -3.2745    -5.9292     0.2787 C.ar         1    LIG   0.0000
  20 C20         -2.6026    -4.7995     0.7335 C.ar         1    LIG   0.0000
  21 C21         -3.3667    -3.7318     1.5043 C.3          1    LIG   0.0000
  22 C22         -2.9217    -2.3609     1.0228 C.3          1    LIG   0.0000
  23 C23         -3.5335    -2.0770    -0.3410 C.2          1    LIG   0.0000
  24 O24         -3.9115    -3.0229    -1.0656 O.co2        1    LIG   0.0000
  25 O25         -3.6542    -0.9357    -0.7243 O.co2        1    LIG  -1.0000
  26 N26          3.5119     0.9928    -0.0619 N.2          1    LIG   0.0000
  27 N27          4.7676     0.9962     0.3288 N.2          1    LIG   0.0000
  28 C28          4.8211     1.0055     1.6384 C.2          1    LIG   0.0000
  29 C29          6.0270     1.0107     2.4458 C.ar         1    LIG   0.0000
  30 C30          7.2759     1.0058     1.8343 C.ar         1    LIG   0.0000
  31 C31          8.4096     1.0102     2.6401 C.ar         1    LIG   0.0000
  32 N32          8.3029     1.0199     3.9772 N.ar         1    LIG   0.0000
  33 C33          7.1064     1.0257     4.5837 C.ar         1    LIG   0.0000
  34 C34          5.9352     1.0215     3.8336 C.ar         1    LIG   0.0000
  35 C35          2.9314    -0.1939     4.0938 C.ar         1    LIG   0.0000
  36 C36          2.5239    -0.1817     5.4236 C.ar         1    LIG   0.0000
  37 H           -3.2823    -1.6831     1.6635 H            1    LIG   0.0000
  38 H            2.8032     1.0423     9.3918 H            1    LIG   0.0000
  39 H            3.6448     0.2210     8.2587 H            1    LIG   0.0000
  40 H            3.6449     1.8540     8.2520 H            1    LIG   0.0000
  41 H            1.3264     0.2190     7.7149 H            1    LIG   0.0000
  42 H            1.3266     1.8520     7.7082 H            1    LIG   0.0000
  43 H            2.3740     3.1045     5.8958 H            1    LIG   0.0000
  44 H            3.0779     3.0874     3.6045 H            1    LIG   0.0000
  45 H            0.9925    -1.1890     1.8314 H            1    LIG   0.0000
  46 H            0.9925    -1.2000     0.1984 H            1    LIG   0.0000
  47 H           -0.2232    -3.5564     1.9685 H            1    LIG   0.0000
  48 H            0.2629    -3.1768     0.4565 H            1    LIG   0.0000
  49 H            0.4326    -5.4292    -0.4353 H            1    LIG   0.0000
  50 H           -0.7168    -7.3533    -1.2646 H            1    LIG   0.0000
  51 H           -3.0306    -7.6847    -0.8087 H            1    LIG   0.0000
  52 H           -4.2448    -6.0626     0.4805 H            1    LIG   0.0000
  53 H           -3.1755    -3.8223     2.4816 H            1    LIG   0.0000
  54 H           -4.3479    -3.8410     1.3451 H            1    LIG   0.0000
  55 H            7.3571     0.9992     0.8377 H            1    LIG   0.0000
  56 H            9.3158     1.0062     2.2173 H            1    LIG   0.0000
  57 H            7.0562     1.0330     5.5824 H            1    LIG   0.0000
  58 H            5.0425     1.0262     4.2843 H            1    LIG   0.0000
  59 H            3.0790    -1.0606     3.6174 H            1    LIG   0.0000
  60 H            2.3770    -1.0434     5.9094 H            1    LIG   0.0000
@<TRIPOS>BOND
   1        1        2 1
   2        2        3 1
   3        3        4 ar
   4        4        5 ar
   5        5        6 ar
   6        6        7 1
   7        7        8 1
   8        8        9 1
   9        9       10 1
  10       10       11 1
  11       11       12 2
  12       11       13 am
  13       13       14 1
  14       14       15 1
  15       15       16 ar
  16       16       17 ar
  17       17       18 ar
  18       18       19 ar
  19       19       20 ar
  20       20       15 ar
  21       20       21 1
  22       21       22 1
  23       22       13 1
  24       22       23 1
  25       23       24 ar
  26       23       25 ar
  27        8       26 2
  28       26       27 1
  29       27       28 2
  30       28        7 1
  31       28       29 1
  32       29       30 ar
  33       30       31 ar
  34       31       32 ar
  35       32       33 ar
  36       33       34 ar
  37       34       29 ar
  38        6       35 ar
  39       35       36 ar
  40       36        3 ar
  41       22       37 1
  42        1       38 1
  43        1       39 1
  44        1       40 1
  45        2       41 1
  46        2       42 1
  47        4       43 1
  48        5       44 1
  49       10       45 1
  50       10       46 1
  51       14       47 1
  52       14       48 1
  53       16       49 1
  54       17       50 1
  55       18       51 1
  56       19       52 1
  57       21       53 1
  58       21       54 1
  59       30       55 1
  60       31       56 1
  61       33       57 1
  62       34       58 1
  63       35       59 1
  64       36       60 1

@<TRIPOS>MOLECULE

  60   64
SMALL
USER_CHARGES
@<TRIPOS>ATOM
   1 C1           3.0964     1.0383     8.4358 C.3          1    LIG   0.0000
   2 C2           1.8750     1.0347     7.5311 C.3          1    LIG   0.0000
   3 C3           2.3207     1.0287     6.0779 C.ar         1    LIG   0.0000
   4 C4           2.5214     2.2378     5.4192 C.ar         1    LIG   0.0000
   5 C5           2.9295     2.2258     4.0898 C.ar         1    LIG   0.0000
   6 C6           3.1312     1.0147     3.4349 C.ar         1    LIG   0.0000
   7 N7           3.5412     1.0083     2.0961 N.pl3        1    LIG   0.0000
   8 C8           2.7401     1.0000     1.0000 C.2          1    LIG   0.0000
   9 S9           1.0000     1.0000     1.0000 S.3          1    LIG   0.0000
  10 C10          0.6052    -0.7664     1.0120 C.3          1    LIG   0.0000
  11 C11         -0.9039    -0.9482     1.0132 C.2          1    LIG   0.0000
  12 O12         -1.4996    -1.0270    -0.0255 O.2          1    LIG   0.0000
  13 N13         -1.5992    -1.0238     2.2267 N.am         1    LIG   0.0000
  14 C14         -0.8163    -0.9265     3.4681 C.3          1    LIG   0.0000
  15 C15         -1.6963    -0.4779     4.6237 C.ar         1    LIG   0.0000
  16 C16         -1.2321     0.3626     5.6298 C.ar         1    LIG   0.0000
  17 C17         -2.0646     0.7411     6.6779 C.ar         1    LIG   0.0000
  18 C18         -3.3712     0.2692     6.7327 C.ar         1    LIG   0.0000
  19 C19         -3.8504    -0.5703     5.7331 C.ar         1    LIG   0.0000
  20 C20         -3.0137    -0.9174     4.6804 C.ar         1    LIG   0.0000
  21 C21         -3.5628    -1.7876     3.5634 C.3          1    LIG   0.0000
  22 C22         -3.0614    -1.1998     2.2532 C.3          1    LIG   0.0000
  23 C23         -3.4359    -2.1099     1.0937 C.2          1    LIG   0.0000
  24 O24         -4.5978    -2.0896     0.6332 O.co2        1    LIG   0.0000
  25 O25         -2.6090    -2.8537     0.6170 O.co2        1    LIG  -1.0000
  26 N26          3.5119     0.9928    -0.0619 N.2          1    LIG   0.0000
  27 N27          4.7676     0.9962     0.3288 N.2          1    LIG   0.0000
  28 C28          4.8211     1.0055     1.6384 C.2          1    LIG   0.0000
  29 C29          6.0270     1.0107     2.4458 C.ar         1    LIG   0.0000
  30 C30          7.2759     1.0058     1.8343 C.ar         1    LIG   0.0000
  31 C31          8.4096     1.0102     2.6401 C.ar         1    LIG   0.0000
  32 N32          8.3029     1.0199     3.9772 N.ar         1    LIG   0.0000
  33 C33          7.1064     1.0257     4.5837 C.ar         1    LIG   0.0000
  34 C34          5.9352     1.0215     3.8336 C.ar         1    LIG   0.0000
  35 C35          2.9314    -0.1939     4.0938 C.ar         1    LIG   0.0000
  36 C36          2.5239    -0.1817     5.4236 C.ar         1    LIG   0.0000
  37 H           -3.4944    -0.3091     2.1146 H            1    LIG   0.0000
  38 H            2.8032     1.0423     9.3918 H            1    LIG   0.0000
  39 H            3.6448     0.2210     8.2587 H            1    LIG   0.0000
  40 H            3.6449     1.8540     8.2520 H            1    LIG   0.0000
  41 H            1.3264     0.2190     7.7149 H            1    LIG   0.0000
  42 H            1.3266     1.8520     7.7082 H            1    LIG   0.0000
  43 H            2.3740     3.1045     5.8958 H            1    LIG   0.0000
  44 H            3.0779     3.0874     3.6045 H            1    LIG   0.0000
  45 H            0.9925    -1.1890     1.8314 H            1    LIG   0.0000
  46 H            0.9925    -1.2000     0.1984 H            1    LIG   0.0000
  47 H           -0.0789    -0.2632     3.3401 H            1    LIG   0.0000
  48 H           -0.4258    -1.8221     3.6811 H            1    LIG   0.0000
  49 H           -0.2906     0.6982     5.5995 H            1    LIG   0.0000
  50 H           -1.7234     1.3525     7.3919 H            1    LIG   0.0000
  51 H           -3.9667     0.5336     7.4913 H            1    LIG   0.0000
  52 H           -4.7865    -0.9199     5.7717 H            1    LIG   0.0000
  53 H           -4.5626    -1.7804     3.5826 H            1    LIG   0.0000
  54 H           -3.2342    -2.7264     3.6666 H            1    LIG   0.0000
  55 H            7.3571     0.9992     0.8377 H            1    LIG   0.0000
  56 H            9.3158     1.0062     2.2173 H            1    LIG   0.0000
  57 H            7.0562     1.0330     5.5824 H            1    LIG   0.0000
  58 H            5.0425     1.0262     4.2843 H            1    LIG   0.0000
  59 H            3.0790    -1.0606     3.6174 H            1    LIG   0.0000
  60 H            2.3770    -1.0434     5.9094 H            1    LIG   0.0000
@<TRIPOS>BOND
   1        1        2 1
   2        2        3 1
   3        3        4 ar
   4        4        5 ar
   5        5        6 ar
   6        6        7 1
   7        7        8 1
   8        8        9 1
   9        9       10 1
  10       10       11 1
  11       11       12 2
  12       11       13 am
  13       13       14 1
  14       14       15 1
  15       15       16 ar
  16       16       17 ar
  17       17       18 ar
  18       18       19 ar
  19       19       20 ar
  20       20       15 ar
  21       20       21 1
  22       21       22 1
  23       22       13 1
  24       22       23 1
  25       23       24 ar
  26       23       25 ar
  27        8       26 2
  28       26       27 1
  29       27       28 2
  30       28        7 1
  31       28       29 1
  32       29       30 ar
  33       30       31 ar
  34       31       32 ar
  35       32       33 ar
  36       33       34 ar
  37       34       29 ar
  38        6       35 ar
  39       35       36 ar
  40       36        3 ar
  41       22       37 1
  42        1       38 1
  43        1       39 1
  44        1       40 1
  45        2       41 1
  46        2       42 1
  47        4       43 1
  48        5       44 1
  49       10       45 1
  50       10       46 1
  51       14       47 1
  52       14       48 1
  53       16       49 1
  54       17       50 1
  55       18       51 1
  56       19       52 1
  57       21       53 1
  58       21       54 1
  59       30       55 1
  60       31       56 1
  61       33       57 1
  62       34       58 1
  63       35       59 1
  64       36       60 1

@<TRIPOS>MOLECULE

  60   64
SMALL
USER_CHARGES
@<TRIPOS>ATOM
   1 C1           3.0964     1.0383     8.4358 C.3          1    LIG   0.0000
   2 C2           1.8750     1.0347     7.5311 C.3          1    LIG   0.0000
   3 C3           2.3207     1.0287     6.0779 C.ar         1    LIG   0.0000
   4 C4           2.5214     2.2378     5.4192 C.ar         1    LIG   0.0000
   5 C5           2.9295     2.2258     4.0898 C.ar         1    LIG   0.0000
   6 C6           3.1312     1.0147     3.4349 C.ar         1    LIG   0.0000
   7 N7           3.5412     1.0083     2.0961 N.pl3        1    LIG   0.0000
   8 C8           2.7401     1.0000     1.0000 C.2          1    LIG   0.0000
   9 S9           1.0000     1.0000     1.0000 S.3          1    LIG   0.0000
  10 C10          0.6052    -0.7664     1.0120 C.3          1    LIG   0.0000
  11 C11         -0.9039    -0.9482     1.0132 C.2          1    LIG   0.0000
  12 O12         -1.4996    -1.0129     2.0529 O.2          1    LIG   0.0000
  13 N13         -1.5992    -1.0402    -0.1991 N.am         1    LIG   0.0000
  14 C14         -0.8176    -0.9490    -1.4418 C.3          1    LIG   0.0000
  15 C15         -1.5677    -1.5940    -2.5960 C.ar         1    LIG   0.0000
  16 C16         -0.9187    -2.3004    -3.6031 C.ar         1    LIG   0.0000
  17 C17         -1.6392    -2.8660    -4.6499 C.ar         1    LIG   0.0000
  18 C18         -3.0206    -2.7180    -4.7025 C.ar         1    LIG   0.0000
  19 C19         -3.6839    -2.0162    -3.7020 C.ar         1    LIG   0.0000
  20 C20         -2.9519    -1.4801    -2.6506 C.ar         1    LIG   0.0000
  21 C21         -3.6902    -0.7650    -1.5326 C.3          1    LIG   0.0000
  22 C22         -3.0614    -1.2166    -0.2232 C.3          1    LIG   0.0000
  23 C23         -3.6395    -0.4213     0.9370 C.2          1    LIG   0.0000
  24 O24         -4.7626    -0.7169     1.3994 O.co2        1    LIG   0.0000
  25 O25         -3.0122     0.4977     1.4126 O.co2        1    LIG  -1.0000
  26 N26          3.5119     0.9928    -0.0619 N.2          1    LIG   0.0000
  27 N27          4.7676     0.9962     0.3288 N.2          1    LIG   0.0000
  28 C28          4.8211     1.0055     1.6384 C.2          1    LIG   0.0000
  29 C29          6.0270     1.0107     2.4458 C.ar         1    LIG   0.0000
  30 C30          7.2759     1.0058     1.8343 C.ar         1    LIG   0.0000
  31 C31          8.4096     1.0102     2.6401 C.ar         1    LIG   0.0000
  32 N32          8.3029     1.0199     3.9772 N.ar         1    LIG   0.0000
  33 C33          7.1064     1.0257     4.5837 C.ar         1    LIG   0.0000
  34 C34          5.9352     1.0215     3.8336 C.ar         1    LIG   0.0000
  35 C35          2.9314    -0.1939     4.0938 C.ar         1    LIG   0.0000
  36 C36          2.5239    -0.1817     5.4236 C.ar         1    LIG   0.0000
  37 H           -3.2702    -2.1846    -0.0842 H            1    LIG   0.0000
  38 H            2.8032     1.0423     9.3918 H            1    LIG   0.0000
  39 H            3.6448     0.2210     8.2587 H            1    LIG   0.0000
  40 H            3.6449     1.8540     8.2520 H            1    LIG   0.0000
  41 H            1.3264     0.2190     7.7149 H            1    LIG   0.0000
  42 H            1.3266     1.8520     7.7082 H            1    LIG   0.0000
  43 H            2.3740     3.1045     5.8958 H            1    LIG   0.0000
  44 H            3.0779     3.0874     3.6045 H            1    LIG   0.0000
  45 H            0.9925    -1.1890     1.8314 H            1    LIG   0.0000
  46 H            0.9925    -1.2000     0.1984 H            1    LIG   0.0000
  47 H            0.0565    -1.4181    -1.3152 H            1    LIG   0.0000
  48 H           -0.6514     0.0137    -1.6553 H            1    LIG   0.0000
  49 H            0.0756    -2.4027    -3.5744 H            1    LIG   0.0000
  50 H           -1.1637    -3.3789    -5.3646 H            1    LIG   0.0000
  51 H           -3.5374    -3.1165    -5.4602 H            1    LIG   0.0000
  52 H           -4.6763    -1.8989    -3.7391 H            1    LIG   0.0000
  53 H           -4.6597    -1.0094    -1.5501 H            1    LIG   0.0000
  54 H           -3.5941     0.2250    -1.6360 H            1    LIG   0.0000
  55 H            7.3571     0.9992     0.8377 H            1    LIG   0.0000
  56 H            9.3158     1.0062     2.2173 H            1    LIG   0.0000
  57 H            7.0562     1.0330     5.5824 H            1    LIG   0.0000
  58 H            5.0425     1.0262     4.2843 H            1    LIG   0.0000
  59 H            3.0790    -1.0606     3.6174 H            1    LIG   0.0000
  60 H            2.3770    -1.0434     5.9094 H            1    LIG   0.0000
@<TRIPOS>BOND
   1        1        2 1
   2        2        3 1
   3        3        4 ar
   4        4        5 ar
   5        5        6 ar
   6        6        7 1
   7        7        8 1
   8        8        9 1
   9        9       10 1
  10       10       11 1
  11       11       12 2
  12       11       13 am
  13       13       14 1
  14       14       15 1
  15       15       16 ar
  16       16       17 ar
  17       17       18 ar
  18       18       19 ar
  19       19       20 ar
  20       20       15 ar
  21       20       21 1
  22       21       22 1
  23       22       13 1
  24       22       23 1
  25       23       24 ar
  26       23       25 ar
  27        8       26 2
  28       26       27 1
  29       27       28 2
  30       28        7 1
  31       28       29 1
  32       29       30 ar
  33       30       31 ar
  34       31       32 ar
  35       32       33 ar
  36       33       34 ar
  37       34       29 ar
  38        6       35 ar
  39       35       36 ar
  40       36        3 ar
  41       22       37 1
  42        1       38 1
  43        1       39 1
  44        1       40 1
  45        2       41 1
  46        2       42 1
  47        4       43 1
  48        5       44 1
  49       10       45 1
  50       10       46 1
  51       14       47 1
  52       14       48 1
  53       16       49 1
  54       17       50 1
  55       18       51 1
  56       19       52 1
  57       21       53 1
  58       21       54 1
  59       30       55 1
  60       31       56 1
  61       33       57 1
  62       34       58 1
  63       35       59 1
  64       36       60 1

@<TRIPOS>MOLECULE

  60   64
SMALL
USER_CHARGES
@<TRIPOS>ATOM
   1 C1           3.0964     1.0383     8.4358 C.3          1    LIG   0.0000
   2 C2           1.8750     1.0347     7.5311 C.3          1    LIG   0.0000
   3 C3           2.3207     1.0287     6.0779 C.ar         1    LIG   0.0000
   4 C4           2.5214     2.2378     5.4192 C.ar         1    LIG   0.0000
   5 C5           2.9295     2.2258     4.0898 C.ar         1    LIG   0.0000
   6 C6           3.1312     1.0147     3.4349 C.ar         1    LIG   0.0000
   7 N7           3.5412     1.0083     2.0961 N.pl3        1    LIG   0.0000
   8 C8           2.7401     1.0000     1.0000 C.2          1    LIG   0.0000
   9 S9           1.0000     1.0000     1.0000 S.3          1    LIG   0.0000
  10 C10          0.6052    -0.7664     1.0120 C.3          1    LIG   0.0000
  11 C11         -0.9039    -0.9482     1.0132 C.2          1    LIG   0.0000
  12 O12         -1.4996    -1.0129     2.0529 O.2          1    LIG   0.0000
  13 N13         -1.5999    -1.0403    -0.2004 N.am         1    LIG   0.0000
  14 C14         -3.0609    -1.2133    -0.1450 C.3          1    LIG   0.0000
  15 C15         -3.5422    -1.8314    -1.4492 C.ar         1    LIG   0.0000
  16 C16         -4.6167    -2.7138    -1.4436 C.ar         1    LIG   0.0000
  17 C17         -5.0453    -3.2612    -2.6486 C.ar         1    LIG   0.0000
  18 C18         -4.4263    -2.9330    -3.8503 C.ar         1    LIG   0.0000
  19 C19         -3.3519    -2.0501    -3.8615 C.ar         1    LIG   0.0000
  20 C20         -2.9127    -1.5231    -2.6516 C.ar         1    LIG   0.0000
  21 C21         -1.7068    -0.5941    -2.6316 C.3          1    LIG   0.0000
  22 C22         -0.8240    -0.9553    -1.4487 C.3          1    LIG   0.0000
  23 C23         -0.0638    -2.2375    -1.7535 C.2          1    LIG   0.0000
  24 O24          0.9365    -2.2080    -2.5026 O.co2        1    LIG   0.0000
  25 O25         -0.4275    -3.2858    -1.2709 O.co2        1    LIG  -1.0000
  26 N26          3.5119     0.9928    -0.0619 N.2          1    LIG   0.0000
  27 N27          4.7676     0.9962     0.3288 N.2          1    LIG   0.0000
  28 C28          4.8211     1.0055     1.6384 C.2          1    LIG   0.0000
  29 C29          6.0270     1.0107     2.4458 C.ar         1    LIG   0.0000
  30 C30          7.2759     1.0058     1.8343 C.ar         1    LIG   0.0000
  31 C31          8.4096     1.0102     2.6401 C.ar         1    LIG   0.0000
  32 N32          8.3029     1.0199     3.9772 N.ar         1    LIG   0.0000
  33 C33          7.1064     1.0257     4.5837 C.ar         1    LIG   0.0000
  34 C34          5.9352     1.0215     3.8336 C.ar         1    LIG   0.0000
  35 C35          2.9314    -0.1939     4.0938 C.ar         1    LIG   0.0000
  36 C36          2.5239    -0.1817     5.4236 C.ar         1    LIG   0.0000
  37 H           -0.1515    -0.2235    -1.3381 H            1    LIG   0.0000
  38 H            2.8032     1.0423     9.3918 H            1    LIG   0.0000
  39 H            3.6448     0.2210     8.2587 H            1    LIG   0.0000
  40 H            3.6449     1.8540     8.2520 H            1    LIG   0.0000
  41 H            1.3264     0.2190     7.7149 H            1    LIG   0.0000
  42 H            1.3266     1.8520     7.7082 H            1    LIG   0.0000
  43 H            2.3740     3.1045     5.8958 H            1    LIG   0.0000
  44 H            3.0779     3.0874     3.6045 H            1    LIG   0.0000
  45 H            0.9925    -1.1890     1.8314 H            1    LIG   0.0000
  46 H            0.9925    -1.2000     0.1984 H            1    LIG   0.0000
  47 H           -3.4982    -0.3234    -0.0153 H            1    LIG   0.0000
  48 H           -3.2976    -1.8153     0.6176 H            1    LIG   0.0000
  49 H           -5.0743    -2.9512    -0.5868 H            1    LIG   0.0000
  50 H           -5.8125    -3.9026    -2.6510 H            1    LIG   0.0000
  51 H           -4.7541    -3.3321    -4.7066 H            1    LIG   0.0000
  52 H           -2.9050    -1.7997    -4.7203 H            1    LIG   0.0000
  53 H           -2.0147     0.3532    -2.5433 H            1    LIG   0.0000
  54 H           -1.1889    -0.6985    -3.4807 H            1    LIG   0.0000
  55 H            7.3571     0.9992     0.8377 H            1    LIG   0.0000
  56 H            9.3158     1.0062     2.2173 H            1    LIG   0.0000
  57 H            7.0562     1.0330     5.5824 H            1    LIG   0.0000
  58 H            5.0425     1.0262     4.2843 H            1    LIG   0.0000
  59 H            3.0790    -1.0606     3.6174 H            1    LIG   0.0000
  60 H            2.3770    -1.0434     5.9094 H            1    LIG   0.0000
@<TRIPOS>BOND
   1        1        2 1
   2        2        3 1
   3        3        4 ar
   4        4        5 ar
   5        5        6 ar
   6        6        7 1
   7        7        8 1
   8        8        9 1
   9        9       10 1
  10       10       11 1
  11       11       12 2
  12       11       13 am
  13       13       14 1
  14       14       15 1
  15       15       16 ar
  16       16       17 ar
  17       17       18 ar
  18       18       19 ar
  19       19       20 ar
  20       20       15 ar
  21       20       21 1
  22       21       22 1
  23       22       13 1
  24       22       23 1
  25       23       24 ar
  26       23       25 ar
  27        8       26 2
  28       26       27 1
  29       27       28 2
  30       28        7 1
  31       28       29 1
  32       29       30 ar
  33       30       31 ar
  34       31       32 ar
  35       32       33 ar
  36       33       34 ar
  37       34       29 ar
  38        6       35 ar
  39       35       36 ar
  40       36        3 ar
  41       22       37 1
  42        1       38 1
  43        1       39 1
  44        1       40 1
  45        2       41 1
  46        2       42 1
  47        4       43 1
  48        5       44 1
  49       10       45 1
  50       10       46 1
  51       14       47 1
  52       14       48 1
  53       16       49 1
  54       17       50 1
  55       18       51 1
  56       19       52 1
  57       21       53 1
  58       21       54 1
  59       30       55 1
  60       31       56 1
  61       33       57 1
  62       34       58 1
  63       35       59 1
  64       36       60 1

@<TRIPOS>MOLECULE

  60   64
SMALL
USER_CHARGES
@<TRIPOS>ATOM
   1 C1           3.0964     1.0383     8.4358 C.3          1    LIG   0.0000
   2 C2           1.8750     1.0347     7.5311 C.3          1    LIG   0.0000
   3 C3           2.3207     1.0287     6.0779 C.ar         1    LIG   0.0000
   4 C4           2.5214     2.2378     5.4192 C.ar         1    LIG   0.0000
   5 C5           2.9295     2.2258     4.0898 C.ar         1    LIG   0.0000
   6 C6           3.1312     1.0147     3.4349 C.ar         1    LIG   0.0000
   7 N7           3.5412     1.0083     2.0961 N.pl3        1    LIG   0.0000
   8 C8           2.7401     1.0000     1.0000 C.2          1    LIG   0.0000
   9 S9           1.0000     1.0000     1.0000 S.3          1    LIG   0.0000
  10 C10          0.6052    -0.7664     1.0120 C.3          1    LIG   0.0000
  11 C11          0.9730    -1.3769    -0.3306 C.2          1    LIG   0.0000
  12 O12          1.4475    -0.6897    -1.1923 O.2          1    LIG   0.0000
  13 N13          0.7580    -2.7414    -0.5618 N.am         1    LIG   0.0000
  14 C14          0.1787    -3.5353     0.5325 C.3          1    LIG   0.0000
  15 C15         -0.4877    -4.7897    -0.0090 C.ar         1    LIG   0.0000
  16 C16         -1.6521    -5.3117     0.5440 C.ar         1    LIG   0.0000
  17 C17         -2.2252    -6.4693     0.0279 C.ar         1    LIG   0.0000
  18 C18         -1.6274    -7.1224    -1.0440 C.ar         1    LIG   0.0000
  19 C19         -0.4641    -6.6116    -1.6090 C.ar         1    LIG   0.0000
  20 C20          0.0804    -5.4408    -1.0978 C.ar         1    LIG   0.0000
  21 C21          1.3184    -4.8587    -1.7574 C.3          1    LIG   0.0000
  22 C22          1.1064    -3.3555    -1.8546 C.3          1    LIG   0.0000
  23 C23          2.3723    -2.6797    -2.3582 C.2          1    LIG   0.0000
  24 O24          2.6478    -2.6978    -3.5773 O.co2        1    LIG   0.0000
  25 O25          3.1127    -2.1243    -1.5788 O.co2        1    LIG  -1.0000
  26 N26          3.5119     0.9928    -0.0619 N.2          1    LIG   0.0000
  27 N27          4.7676     0.9962     0.3288 N.2          1    LIG   0.0000
  28 C28          4.8211     1.0055     1.6384 C.2          1    LIG   0.0000
  29 C29          6.0270     1.0107     2.4458 C.ar         1    LIG   0.0000
  30 C30          7.2759     1.0058     1.8343 C.ar         1    LIG   0.0000
  31 C31          8.4096     1.0102     2.6401 C.ar         1    LIG   0.0000
  32 N32          8.3029     1.0199     3.9772 N.ar         1    LIG   0.0000
  33 C33          7.1064     1.0257     4.5837 C.ar         1    LIG   0.0000
  34 C34          5.9352     1.0215     3.8336 C.ar         1    LIG   0.0000
  35 C35          2.9314    -0.1939     4.0938 C.ar         1    LIG   0.0000
  36 C36          2.5239    -0.1817     5.4236 C.ar         1    LIG   0.0000
  37 H            0.3673    -3.1771    -2.5041 H            1    LIG   0.0000
  38 H            2.8032     1.0423     9.3918 H            1    LIG   0.0000
  39 H            3.6448     0.2210     8.2587 H            1    LIG   0.0000
  40 H            3.6449     1.8540     8.2520 H            1    LIG   0.0000
  41 H            1.3264     0.2190     7.7149 H            1    LIG   0.0000
  42 H            1.3266     1.8520     7.7082 H            1    LIG   0.0000
  43 H            2.3740     3.1045     5.8958 H            1    LIG   0.0000
  44 H            3.0779     3.0874     3.6045 H            1    LIG   0.0000
  45 H           -0.3737    -0.8880     1.1765 H            1    LIG   0.0000
  46 H            1.1239    -1.2190     1.7373 H            1    LIG   0.0000
  47 H           -0.5023    -2.9833     1.0138 H            1    LIG   0.0000
  48 H            0.9048    -3.7975     1.1681 H            1    LIG   0.0000
  49 H           -2.0816    -4.8504     1.3204 H            1    LIG   0.0000
  50 H           -3.0672    -6.8316     0.4277 H            1    LIG   0.0000
  51 H           -2.0343    -7.9598    -1.4088 H            1    LIG   0.0000
  52 H           -0.0247    -7.0818    -2.3744 H            1    LIG   0.0000
  53 H            1.4362    -5.2485    -2.6707 H            1    LIG   0.0000
  54 H            2.1274    -5.0561    -1.2038 H            1    LIG   0.0000
  55 H            7.3571     0.9992     0.8377 H            1    LIG   0.0000
  56 H            9.3158     1.0062     2.2173 H            1    LIG   0.0000
  57 H            7.0562     1.0330     5.5824 H            1    LIG   0.0000
  58 H            5.0425     1.0262     4.2843 H            1    LIG   0.0000
  59 H            3.0790    -1.0606     3.6174 H            1    LIG   0.0000
  60 H            2.3770    -1.0434     5.9094 H            1    LIG   0.0000
@<TRIPOS>BOND
   1        1        2 1
   2        2        3 1
   3        3        4 ar
   4        4        5 ar
   5        5        6 ar
   6        6        7 1
   7        7        8 1
   8        8        9 1
   9        9       10 1
  10       10       11 1
  11       11       12 2
  12       11       13 am
  13       13       14 1
  14       14       15 1
  15       15       16 ar
  16       16       17 ar
  17       17       18 ar
  18       18       19 ar
  19       19       20 ar
  20       20       15 ar
  21       20       21 1
  22       21       22 1
  23       22       13 1
  24       22       23 1
  25       23       24 ar
  26       23       25 ar
  27        8       26 2
  28       26       27 1
  29       27       28 2
  30       28        7 1
  31       28       29 1
  32       29       30 ar
  33       30       31 ar
  34       31       32 ar
  35       32       33 ar
  36       33       34 ar
  37       34       29 ar
  38        6       35 ar
  39       35       36 ar
  40       36        3 ar
  41       22       37 1
  42        1       38 1
  43        1       39 1
  44        1       40 1
  45        2       41 1
  46        2       42 1
  47        4       43 1
  48        5       44 1
  49       10       45 1
  50       10       46 1
  51       14       47 1
  52       14       48 1
  53       16       49 1
  54       17       50 1
  55       18       51 1
  56       19       52 1
  57       21       53 1
  58       21       54 1
  59       30       55 1
  60       31       56 1
  61       33       57 1
  62       34       58 1
  63       35       59 1
  64       36       60 1

@<TRIPOS>MOLECULE

  60   64
SMALL
USER_CHARGES
@<TRIPOS>ATOM
   1 C1           3.0964     1.0383     8.4358 C.3          1    LIG   0.0000
   2 C2           1.8750     1.0347     7.5311 C.3          1    LIG   0.0000
   3 C3           2.3207     1.0287     6.0779 C.ar         1    LIG   0.0000
   4 C4           2.5214     2.2378     5.4192 C.ar         1    LIG   0.0000
   5 C5           2.9295     2.2258     4.0898 C.ar         1    LIG   0.0000
   6 C6           3.1312     1.0147     3.4349 C.ar         1    LIG   0.0000
   7 N7           3.5412     1.0083     2.0961 N.pl3        1    LIG   0.0000
   8 C8           2.7401     1.0000     1.0000 C.2          1    LIG   0.0000
   9 S9           1.0000     1.0000     1.0000 S.3          1    LIG   0.0000
  10 C10          0.6052    -0.7664     1.0120 C.3          1    LIG   0.0000
  11 C11          0.9730    -1.3769    -0.3306 C.2          1    LIG   0.0000
  12 O12          1.4475    -0.6897    -1.1923 O.2          1    LIG   0.0000
  13 N13          0.7578    -2.7428    -0.5620 N.am         1    LIG   0.0000
  14 C14          1.1334    -3.2859    -1.8779 C.3          1    LIG   0.0000
  15 C15          0.3502    -4.5647    -2.1345 C.ar         1    LIG   0.0000
  16 C16         -0.0518    -4.8844    -3.4266 C.ar         1    LIG   0.0000
  17 C17         -0.7603    -6.0625    -3.6397 C.ar         1    LIG   0.0000
  18 C18         -1.0605    -6.9234    -2.5891 C.ar         1    LIG   0.0000
  19 C19         -0.6598    -6.6088    -1.2951 C.ar         1    LIG   0.0000
  20 C20          0.0284    -5.4187    -1.0838 C.ar         1    LIG   0.0000
  21 C21          0.4335    -5.0275     0.3306 C.3          1    LIG   0.0000
  22 C22          0.1732    -3.5432     0.5267 C.3          1    LIG   0.0000
  23 C23         -1.3206    -3.3056     0.6904 C.2          1    LIG   0.0000
  24 O24         -2.1385    -4.1429     0.2517 O.co2        1    LIG   0.0000
  25 O25         -1.7170    -2.3061     1.2454 O.co2        1    LIG  -1.0000
  26 N26          3.5119     0.9928    -0.0619 N.2          1    LIG   0.0000
  27 N27          4.7676     0.9962     0.3288 N.2          1    LIG   0.0000
  28 C28          4.8211     1.0055     1.6384 C.2          1    LIG   0.0000
  29 C29          6.0270     1.0107     2.4458 C.ar         1    LIG   0.0000
  30 C30          7.2759     1.0058     1.8343 C.ar         1    LIG   0.0000
  31 C31          8.4096     1.0102     2.6401 C.ar         1    LIG   0.0000
  32 N32          8.3029     1.0199     3.9772 N.ar         1    LIG   0.0000
  33 C33          7.1064     1.0257     4.5837 C.ar         1    LIG   0.0000
  34 C34          5.9352     1.0215     3.8336 C.ar         1    LIG   0.0000
  35 C35          2.9314    -0.1939     4.0938 C.ar         1    LIG   0.0000
  36 C36          2.5239    -0.1817     5.4236 C.ar         1    LIG   0.0000
  37 H            0.6189    -3.2675     1.3783 H            1    LIG   0.0000
  38 H            2.8032     1.0423     9.3918 H            1    LIG   0.0000
  39 H            3.6448     0.2210     8.2587 H            1    LIG   0.0000
  40 H            3.6449     1.8540     8.2520 H            1    LIG   0.0000
  41 H            1.3264     0.2190     7.7149 H            1    LIG   0.0000
  42 H            1.3266     1.8520     7.7082 H            1    LIG   0.0000
  43 H            2.3740     3.1045     5.8958 H            1    LIG   0.0000
  44 H            3.0779     3.0874     3.6045 H            1    LIG   0.0000
  45 H           -0.3737    -0.8880     1.1765 H            1    LIG   0.0000
  46 H            1.1239    -1.2190     1.7373 H            1    LIG   0.0000
  47 H            2.1131    -3.4858    -1.8898 H            1    LIG   0.0000
  48 H            0.9214    -2.6156    -2.5891 H            1    LIG   0.0000
  49 H            0.1650    -4.2769    -4.1908 H            1    LIG   0.0000
  50 H           -1.0593    -6.2948    -4.5653 H            1    LIG   0.0000
  51 H           -1.5647    -7.7690    -2.7645 H            1    LIG   0.0000
  52 H           -0.8620    -7.2245    -0.5335 H            1    LIG   0.0000
  53 H            1.4058    -5.2181     0.4658 H            1    LIG   0.0000
  54 H           -0.1040    -5.5522     0.9907 H            1    LIG   0.0000
  55 H            7.3571     0.9992     0.8377 H            1    LIG   0.0000
  56 H            9.3158     1.0062     2.2173 H            1    LIG   0.0000
  57 H            7.0562     1.0330     5.5824 H            1    LIG   0.0000
  58 H            5.0425     1.0262     4.2843 H            1    LIG   0.0000
  59 H            3.0790    -1.0606     3.6174 H            1    LIG   0.0000
  60 H            2.3770    -1.0434     5.9094 H            1    LIG   0.0000
@<TRIPOS>BOND
   1        1        2 1
   2        2        3 1
   3        3        4 ar
   4        4        5 ar
   5        5        6 ar
   6        6        7 1
   7        7        8 1
   8        8        9 1
   9        9       10 1
  10       10       11 1
  11       11       12 2
  12       11       13 am
  13       13       14 1
  14       14       15 1
  15       15       16 ar
  16       16       17 ar
  17       17       18 ar
  18       18       19 ar
  19       19       20 ar
  20       20       15 ar
  21       20       21 1
  22       21       22 1
  23       22       13 1
  24       22       23 1
  25       23       24 ar
  26       23       25 ar
  27        8       26 2
  28       26       27 1
  29       27       28 2
  30       28        7 1
  31       28       29 1
  32       29       30 ar
  33       30       31 ar
  34       31       32 ar
  35       32       33 ar
  36       33       34 ar
  37       34       29 ar
  38        6       35 ar
  39       35       36 ar
  40       36        3 ar
  41       22       37 1
  42        1       38 1
  43        1       39 1
  44        1       40 1
  45        2       41 1
  46        2       42 1
  47        4       43 1
  48        5       44 1
  49       10       45 1
  50       10       46 1
  51       14       47 1
  52       14       48 1
  53       16       49 1
  54       17       50 1
  55       18       51 1
  56       19       52 1
  57       21       53 1
  58       21       54 1
  59       30       55 1
  60       31       56 1
  61       33       57 1
  62       34       58 1
  63       35       59 1
  64       36       60 1

@<TRIPOS>MOLECULE

  60   64
SMALL
USER_CHARGES
@<TRIPOS>ATOM
   1 C1           3.0964     1.0383     8.4358 C.3          1    LIG   0.0000
   2 C2           1.8750     1.0347     7.5311 C.3          1    LIG   0.0000
   3 C3           2.3207     1.0287     6.0779 C.ar         1    LIG   0.0000
   4 C4           2.5214     2.2378     5.4192 C.ar         1    LIG   0.0000
   5 C5           2.9295     2.2258     4.0898 C.ar         1    LIG   0.0000
   6 C6           3.1312     1.0147     3.4349 C.ar         1    LIG   0.0000
   7 N7           3.5412     1.0083     2.0961 N.pl3        1    LIG   0.0000
   8 C8           2.7401     1.0000     1.0000 C.2          1    LIG   0.0000
   9 S9           1.0000     1.0000     1.0000 S.3          1    LIG   0.0000
  10 C10          0.6052    -0.7664     1.0120 C.3          1    LIG   0.0000
  11 C11          0.9730    -1.3769    -0.3306 C.2          1    LIG   0.0000
  12 O12          2.0712    -1.8285    -0.5036 O.2          1    LIG   0.0000
  13 N13          0.0301    -1.4123    -1.3656 N.am         1    LIG   0.0000
  14 C14         -1.3013    -0.8490    -1.0945 C.3          1    LIG   0.0000
  15 C15         -1.9931    -0.4591    -2.3908 C.ar         1    LIG   0.0000
  16 C16         -2.8120     0.6607    -2.4896 C.ar         1    LIG   0.0000
  17 C17         -3.4378     0.9777    -3.6907 C.ar         1    LIG   0.0000
  18 C18         -3.2565     0.1653    -4.8043 C.ar         1    LIG   0.0000
  19 C19         -2.4393    -0.9566    -4.7216 C.ar         1    LIG   0.0000
  20 C20         -1.8017    -1.2439    -3.5219 C.ar         1    LIG   0.0000
  21 C21         -0.8656    -2.4381    -3.4565 C.3          1    LIG   0.0000
  22 C22          0.3633    -1.9988    -2.6752 C.3          1    LIG   0.0000
  23 C23          1.2786    -3.1876    -2.4269 C.2          1    LIG   0.0000
  24 O24          2.0307    -3.5982    -3.3370 O.co2        1    LIG   0.0000
  25 O25          1.2789    -3.7361    -1.3483 O.co2        1    LIG  -1.0000
  26 N26          3.5119     0.9928    -0.0619 N.2          1    LIG   0.0000
  27 N27          4.7676     0.9962     0.3288 N.2          1    LIG   0.0000
  28 C28          4.8211     1.0055     1.6384 C.2          1    LIG   0.0000
  29 C29          6.0270     1.0107     2.4458 C.ar         1    LIG   0.0000
  30 C30          7.2759     1.0058     1.8343 C.ar         1    LIG   0.0000
  31 C31          8.4096     1.0102     2.6401 C.ar         1    LIG   0.0000
  32 N32          8.3029     1.0199     3.9772 N.ar         1    LIG   0.0000
  33 C33          7.1064     1.0257     4.5837 C.ar         1    LIG   0.0000
  34 C34          5.9352     1.0215     3.8336 C.ar         1    LIG   0.0000
  35 C35          2.9314    -0.1939     4.0938 C.ar         1    LIG   0.0000
  36 C36          2.5239    -0.1817     5.4236 C.ar         1    LIG   0.0000
  37 H            0.8600    -1.3186    -3.2143 H            1    LIG   0.0000
  38 H            2.8032     1.0423     9.3918 H            1    LIG   0.0000
  39 H            3.6448     0.2210     8.2587 H            1    LIG   0.0000
  40 H            3.6449     1.8540     8.2520 H            1    LIG   0.0000
  41 H            1.3264     0.2190     7.7149 H            1    LIG   0.0000
  42 H            1.3266     1.8520     7.7082 H            1    LIG   0.0000
  43 H            2.3740     3.1045     5.8958 H            1    LIG   0.0000
  44 H            3.0779     3.0874     3.6045 H            1    LIG   0.0000
  45 H           -0.3737    -0.8880     1.1765 H            1    LIG   0.0000
  46 H            1.1239    -1.2190     1.7373 H            1    LIG   0.0000
  47 H           -1.2035    -0.0380    -0.5177 H            1    LIG   0.0000
  48 H           -1.8560    -1.5316    -0.6186 H            1    LIG   0.0000
  49 H           -2.9522     1.2438    -1.6894 H            1    LIG   0.0000
  50 H           -4.0179     1.7898    -3.7533 H            1    LIG   0.0000
  51 H           -3.7142     0.3880    -5.6651 H            1    LIG   0.0000
  52 H           -2.3121    -1.5496    -5.5168 H            1    LIG   0.0000
  53 H           -0.6031    -2.7195    -4.3795 H            1    LIG   0.0000
  54 H           -1.3142    -3.2007    -2.9904 H            1    LIG   0.0000
  55 H            7.3571     0.9992     0.8377 H            1    LIG   0.0000
  56 H            9.3158     1.0062     2.2173 H            1    LIG   0.0000
  57 H            7.0562     1.0330     5.5824 H            1    LIG   0.0000
  58 H            5.0425     1.0262     4.2843 H            1    LIG   0.0000
  59 H            3.0790    -1.0606     3.6174 H            1    LIG   0.0000
  60 H            2.3770    -1.0434     5.9094 H            1    LIG   0.0000
@<TRIPOS>BOND
   1        1        2 1
   2        2        3 1
   3        3        4 ar
   4        4        5 ar
   5        5        6 ar
   6        6        7 1
   7        7        8 1
   8        8        9 1
   9        9       10 1
  10       10       11 1
  11       11       12 2
  12       11       13 am
  13       13       14 1
  14       14       15 1
  15       15       16 ar
  16       16       17 ar
  17       17       18 ar
  18       18       19 ar
  19       19       20 ar
  20       20       15 ar
  21       20       21 1
  22       21       22 1
  23       22       13 1
  24       22       23 1
  25       23       24 ar
  26       23       25 ar
  27        8       26 2
  28       26       27 1
  29       27       28 2
  30       28        7 1
  31       28       29 1
  32       29       30 ar
  33       30       31 ar
  34       31       32 ar
  35       32       33 ar
  36       33       34 ar
  37       34       29 ar
  38        6       35 ar
  39       35       36 ar
  40       36        3 ar
  41       22       37 1
  42        1       38 1
  43        1       39 1
  44        1       40 1
  45        2       41 1
  46        2       42 1
  47        4       43 1
  48        5       44 1
  49       10       45 1
  50       10       46 1
  51       14       47 1
  52       14       48 1
  53       16       49 1
  54       17       50 1
  55       18       51 1
  56       19       52 1
  57       21       53 1
  58       21       54 1
  59       30       55 1
  60       31       56 1
  61       33       57 1
  62       34       58 1
  63       35       59 1
  64       36       60 1

@<TRIPOS>MOLECULE

  60   64
SMALL
USER_CHARGES
@<TRIPOS>ATOM
   1 C1           3.0964     1.0383     8.4358 C.3          1    LIG   0.0000
   2 C2           1.8750     1.0347     7.5311 C.3          1    LIG   0.0000
   3 C3           2.3207     1.0287     6.0779 C.ar         1    LIG   0.0000
   4 C4           2.5214     2.2378     5.4192 C.ar         1    LIG   0.0000
   5 C5           2.9295     2.2258     4.0898 C.ar         1    LIG   0.0000
   6 C6           3.1312     1.0147     3.4349 C.ar         1    LIG   0.0000
   7 N7           3.5412     1.0083     2.0961 N.pl3        1    LIG   0.0000
   8 C8           2.7401     1.0000     1.0000 C.2          1    LIG   0.0000
   9 S9           1.0000     1.0000     1.0000 S.3          1    LIG   0.0000
  10 C10          0.6052    -0.7664     1.0120 C.3          1    LIG   0.0000
  11 C11          0.9730    -1.3769    -0.3306 C.2          1    LIG   0.0000
  12 O12          0.1651    -1.4072    -1.2174 O.2          1    LIG   0.0000
  13 N13          2.2547    -1.9039    -0.5326 N.am         1    LIG   0.0000
  14 C14          3.2048    -1.8344     0.5881 C.3          1    LIG   0.0000
  15 C15          4.2939    -2.8837     0.4342 C.ar         1    LIG   0.0000
  16 C16          4.8415    -3.5532     1.5234 C.ar         1    LIG   0.0000
  17 C17          5.8458    -4.4985     1.3429 C.ar         1    LIG   0.0000
  18 C18          6.3197    -4.7735     0.0651 C.ar         1    LIG   0.0000
  19 C19          5.7809    -4.1138    -1.0339 C.ar         1    LIG   0.0000
  20 C20          4.7610    -3.1919    -0.8382 C.ar         1    LIG   0.0000
  21 C21          4.1387    -2.5185    -2.0489 C.3          1    LIG   0.0000
  22 C22          2.6343    -2.5006    -1.8248 C.3          1    LIG   0.0000
  23 C23          1.9512    -1.6971    -2.9204 C.2          1    LIG   0.0000
  24 O24          1.7560    -2.2109    -4.0431 O.co2        1    LIG   0.0000
  25 O25          1.5965    -0.5604    -2.7054 O.co2        1    LIG  -1.0000
  26 N26          3.5119     0.9928    -0.0619 N.2          1    LIG   0.0000
  27 N27          4.7676     0.9962     0.3288 N.2          1    LIG   0.0000
  28 C28          4.8211     1.0055     1.6384 C.2          1    LIG   0.0000
  29 C29          6.0270     1.0107     2.4458 C.ar         1    LIG   0.0000
  30 C30          7.2759     1.0058     1.8343 C.ar         1    LIG   0.0000
  31 C31          8.4096     1.0102     2.6401 C.ar         1    LIG   0.0000
  32 N32          8.3029     1.0199     3.9772 N.ar         1    LIG   0.0000
  33 C33          7.1064     1.0257     4.5837 C.ar         1    LIG   0.0000
  34 C34          5.9352     1.0215     3.8336 C.ar         1    LIG   0.0000
  35 C35          2.9314    -0.1939     4.0938 C.ar         1    LIG   0.0000
  36 C36          2.5239    -0.1817     5.4236 C.ar         1    LIG   0.0000
  37 H            2.2941    -3.4404    -1.8565 H            1    LIG   0.0000
  38 H            2.8032     1.0423     9.3918 H            1    LIG   0.0000
  39 H            3.6448     0.2210     8.2587 H            1    LIG   0.0000
  40 H            3.6449     1.8540     8.2520 H            1    LIG   0.0000
  41 H            1.3264     0.2190     7.7149 H            1    LIG   0.0000
  42 H            1.3266     1.8520     7.7082 H            1    LIG   0.0000
  43 H            2.3740     3.1045     5.8958 H            1    LIG   0.0000
  44 H            3.0779     3.0874     3.6045 H            1    LIG   0.0000
  45 H           -0.3737    -0.8880     1.1765 H            1    LIG   0.0000
  46 H            1.1239    -1.2190     1.7373 H            1    LIG   0.0000
  47 H            2.7143    -1.9935     1.4449 H            1    LIG   0.0000
  48 H            3.6238    -0.9266     0.6075 H            1    LIG   0.0000
  49 H            4.5099    -3.3531     2.4454 H            1    LIG   0.0000
  50 H            6.2269    -4.9801     2.1320 H            1    LIG   0.0000
  51 H            7.0484    -5.4461    -0.0636 H            1    LIG   0.0000
  52 H            6.1238    -4.3010    -1.9544 H            1    LIG   0.0000
  53 H            4.3562    -3.0338    -2.8779 H            1    LIG   0.0000
  54 H            4.4838    -1.5841    -2.1371 H            1    LIG   0.0000
  55 H            7.3571     0.9992     0.8377 H            1    LIG   0.0000
  56 H            9.3158     1.0062     2.2173 H            1    LIG   0.0000
  57 H            7.0562     1.0330     5.5824 H            1    LIG   0.0000
  58 H            5.0425     1.0262     4.2843 H            1    LIG   0.0000
  59 H            3.0790    -1.0606     3.6174 H            1    LIG   0.0000
  60 H            2.3770    -1.0434     5.9094 H            1    LIG   0.0000
@<TRIPOS>BOND
   1        1        2 1
   2        2        3 1
   3        3        4 ar
   4        4        5 ar
   5        5        6 ar
   6        6        7 1
   7        7        8 1
   8        8        9 1
   9        9       10 1
  10       10       11 1
  11       11       12 2
  12       11       13 am
  13       13       14 1
  14       14       15 1
  15       15       16 ar
  16       16       17 ar
  17       17       18 ar
  18       18       19 ar
  19       19       20 ar
  20       20       15 ar
  21       20       21 1
  22       21       22 1
  23       22       13 1
  24       22       23 1
  25       23       24 ar
  26       23       25 ar
  27        8       26 2
  28       26       27 1
  29       27       28 2
  30       28        7 1
  31       28       29 1
  32       29       30 ar
  33       30       31 ar
  34       31       32 ar
  35       32       33 ar
  36       33       34 ar
  37       34       29 ar
  38        6       35 ar
  39       35       36 ar
  40       36        3 ar
  41       22       37 1
  42        1       38 1
  43        1       39 1
  44        1       40 1
  45        2       41 1
  46        2       42 1
  47        4       43 1
  48        5       44 1
  49       10       45 1
  50       10       46 1
  51       14       47 1
  52       14       48 1
  53       16       49 1
  54       17       50 1
  55       18       51 1
  56       19       52 1
  57       21       53 1
  58       21       54 1
  59       30       55 1
  60       31       56 1
  61       33       57 1
  62       34       58 1
  63       35       59 1
  64       36       60 1

@<TRIPOS>MOLECULE

  60   64
SMALL
USER_CHARGES
@<TRIPOS>ATOM
   1 C1           0.3563     1.0351     7.5953 C.3          1    LIG   0.0000
   2 C2           1.8750     1.0347     7.5311 C.3          1    LIG   0.0000
   3 C3           2.3207     1.0287     6.0779 C.ar         1    LIG   0.0000
   4 C4           2.5214     2.2378     5.4192 C.ar         1    LIG   0.0000
   5 C5           2.9295     2.2258     4.0898 C.ar         1    LIG   0.0000
   6 C6           3.1312     1.0147     3.4349 C.ar         1    LIG   0.0000
   7 N7           3.5412     1.0083     2.0961 N.pl3        1    LIG   0.0000
   8 C8           2.7401     1.0000     1.0000 C.2          1    LIG   0.0000
   9 S9           1.0000     1.0000     1.0000 S.3          1    LIG   0.0000
  10 C10          0.6052    -0.7664     1.0120 C.3          1    LIG   0.0000
  11 C11         -0.9039    -0.9482     1.0132 C.2          1    LIG   0.0000
  12 O12         -1.6239     0.0117     1.0067 O.2          1    LIG   0.0000
  13 N13         -1.4550    -2.2384     1.0220 N.am         1    LIG   0.0000
  14 C14         -2.9152    -2.4576     1.0297 C.3          1    LIG   0.0000
  15 C15         -3.2708    -3.5627     0.0429 C.ar         1    LIG   0.0000
  16 C16         -4.6162    -3.7778    -0.2319 C.ar         1    LIG   0.0000
  17 C17         -4.9794    -4.7459    -1.1627 C.ar         1    LIG   0.0000
  18 C18         -4.0007    -5.4939    -1.8094 C.ar         1    LIG   0.0000
  19 C19         -2.6529    -5.2861    -1.5351 C.ar         1    LIG   0.0000
  20 C20         -2.2981    -4.3197    -0.6064 C.ar         1    LIG   0.0000
  21 C21         -0.8233    -4.0992    -0.3205 C.3          1    LIG   0.0000
  22 C22         -0.6062    -3.4402     1.0301 C.3          1    LIG   0.0000
  23 C23         -0.9458    -4.4034     2.1553 C.2          1    LIG   0.0000
  24 O24         -1.6082    -5.4360     1.9156 O.co2        1    LIG   0.0000
  25 O25         -0.5750    -4.1708     3.2834 O.co2        1    LIG  -1.0000
  26 N26          3.5119     0.9928    -0.0619 N.2          1    LIG   0.0000
  27 N27          4.7676     0.9962     0.3288 N.2          1    LIG   0.0000
  28 C28          4.8211     1.0055     1.6384 C.2          1    LIG   0.0000
  29 C29          6.0270     1.0107     2.4458 C.ar         1    LIG   0.0000
  30 C30          7.2759     1.0058     1.8343 C.ar         1    LIG   0.0000
  31 C31          8.4096     1.0102     2.6401 C.ar         1    LIG   0.0000
  32 N32          8.3029     1.0199     3.9772 N.ar         1    LIG   0.0000
  33 C33          7.1064     1.0257     4.5837 C.ar         1    LIG   0.0000
  34 C34          5.9352     1.0215     3.8336 C.ar         1    LIG   0.0000
  35 C35          2.9314    -0.1939     4.0938 C.ar         1    LIG   0.0000
  36 C36          2.5239    -0.1817     5.4236 C.ar         1    LIG   0.0000
  37 H            0.3518    -3.1651     1.1111 H            1    LIG   0.0000
  38 H            0.0630     1.0391     8.5513 H            1    LIG   0.0000
  39 H            0.0035     1.8497     7.1350 H            1    LIG   0.0000
  40 H            0.0033     0.2168     7.1417 H            1    LIG   0.0000
  41 H            2.2279     1.8530     7.9847 H            1    LIG   0.0000
  42 H            2.2278     0.2201     7.9914 H            1    LIG   0.0000
  43 H            2.3740     3.1045     5.8958 H            1    LIG   0.0000
  44 H            3.0779     3.0874     3.6045 H            1    LIG   0.0000
  45 H            0.9925    -1.1890     1.8314 H            1    LIG   0.0000
  46 H            0.9925    -1.2000     0.1984 H            1    LIG   0.0000
  47 H           -3.3801    -1.6127     0.7651 H            1    LIG   0.0000
  48 H           -3.2068    -2.7250     1.9482 H            1    LIG   0.0000
  49 H           -5.3179    -3.2407     0.2361 H            1    LIG   0.0000
  50 H           -5.9453    -4.9042    -1.3673 H            1    LIG   0.0000
  51 H           -4.2688    -6.1877    -2.4778 H            1    LIG   0.0000
  52 H           -1.9509    -5.8252    -2.0005 H            1    LIG   0.0000
  53 H           -0.4392    -3.5122    -1.0332 H            1    LIG   0.0000
  54 H           -0.3558    -4.9831    -0.3289 H            1    LIG   0.0000
  55 H            7.3571     0.9992     0.8377 H            1    LIG   0.0000
  56 H            9.3158     1.0062     2.2173 H            1    LIG   0.0000
  57 H            7.0562     1.0330     5.5824 H            1    LIG   0.0000
  58 H            5.0425     1.0262     4.2843 H            1    LIG   0.0000
  59 H            3.0790    -1.0606     3.6174 H            1    LIG   0.0000
  60 H            2.3770    -1.0434     5.9094 H            1    LIG   0.0000
@<TRIPOS>BOND
   1        1        2 1
   2        2        3 1
   3        3        4 ar
   4        4        5 ar
   5        5        6 ar
   6        6        7 1
   7        7        8 1
   8        8        9 1
   9        9       10 1
  10       10       11 1
  11       11       12 2
  12       11       13 am
  13       13       14 1
  14       14       15 1
  15       15       16 ar
  16       16       17 ar
  17       17       18 ar
  18       18       19 ar
  19       19       20 ar
  20       20       15 ar
  21       20       21 1
  22       21       22 1
  23       22       13 1
  24       22       23 1
  25       23       24 ar
  26       23       25 ar
  27        8       26 2
  28       26       27 1
  29       27       28 2
  30       28        7 1
  31       28       29 1
  32       29       30 ar
  33       30       31 ar
  34       31       32 ar
  35       32       33 ar
  36       33       34 ar
  37       34       29 ar
  38        6       35 ar
  39       35       36 ar
  40       36        3 ar
  41       22       37 1
  42        1       38 1
  43        1       39 1
  44        1       40 1
  45        2       41 1
  46        2       42 1
  47        4       43 1
  48        5       44 1
  49       10       45 1
  50       10       46 1
  51       14       47 1
  52       14       48 1
  53       16       49 1
  54       17       50 1
  55       18       51 1
  56       19       52 1
  57       21       53 1
  58       21       54 1
  59       30       55 1
  60       31       56 1
  61       33       57 1
  62       34       58 1
  63       35       59 1
  64       36       60 1

@<TRIPOS>MOLECULE

  60   64
SMALL
USER_CHARGES
@<TRIPOS>ATOM
   1 C1           0.3563     1.0351     7.5953 C.3          1    LIG   0.0000
   2 C2           1.8750     1.0347     7.5311 C.3          1    LIG   0.0000
   3 C3           2.3207     1.0287     6.0779 C.ar         1    LIG   0.0000
   4 C4           2.5214     2.2378     5.4192 C.ar         1    LIG   0.0000
   5 C5           2.9295     2.2258     4.0898 C.ar         1    LIG   0.0000
   6 C6           3.1312     1.0147     3.4349 C.ar         1    LIG   0.0000
   7 N7           3.5412     1.0083     2.0961 N.pl3        1    LIG   0.0000
   8 C8           2.7401     1.0000     1.0000 C.2          1    LIG   0.0000
   9 S9           1.0000     1.0000     1.0000 S.3          1    LIG   0.0000
  10 C10          0.6052    -0.7664     1.0120 C.3          1    LIG   0.0000
  11 C11          0.9730    -1.3769    -0.3306 C.2          1    LIG   0.0000
  12 O12          2.0712    -1.8285    -0.5036 O.2          1    LIG   0.0000
  13 N13          0.0285    -1.4124    -1.3674 N.am         1    LIG   0.0000
  14 C14          0.3482    -1.9908    -2.6878 C.3          1    LIG   0.0000
  15 C15         -0.8108    -2.8611    -3.1580 C.ar         1    LIG   0.0000
  16 C16         -0.6155    -3.6442    -4.2896 C.ar         1    LIG   0.0000
  17 C17         -1.6332    -4.4877    -4.7233 C.ar         1    LIG   0.0000
  18 C18         -2.8378    -4.5419    -4.0294 C.ar         1    LIG   0.0000
  19 C19         -3.0406    -3.7571    -2.8989 C.ar         1    LIG   0.0000
  20 C20         -2.0220    -2.9188    -2.4723 C.ar         1    LIG   0.0000
  21 C21         -2.2544    -2.0718    -1.2337 C.3          1    LIG   0.0000
  22 C22         -1.3280    -0.8693    -1.1947 C.3          1    LIG   0.0000
  23 C23         -1.7104     0.1348    -2.2693 C.2          1    LIG   0.0000
  24 O24         -2.6112     0.9731    -2.0492 O.co2        1    LIG   0.0000
  25 O25         -1.1430     0.1229    -3.3379 O.co2        1    LIG  -1.0000
  26 N26          3.5119     0.9928    -0.0619 N.2          1    LIG   0.0000
  27 N27          4.7676     0.9962     0.3288 N.2          1    LIG   0.0000
  28 C28          4.8211     1.0055     1.6384 C.2          1    LIG   0.0000
  29 C29          6.0270     1.0107     2.4458 C.ar         1    LIG   0.0000
  30 C30          7.2759     1.0058     1.8343 C.ar         1    LIG   0.0000
  31 C31          8.4096     1.0102     2.6401 C.ar         1    LIG   0.0000
  32 N32          8.3029     1.0199     3.9772 N.ar         1    LIG   0.0000
  33 C33          7.1064     1.0257     4.5837 C.ar         1    LIG   0.0000
  34 C34          5.9352     1.0215     3.8336 C.ar         1    LIG   0.0000
  35 C35          2.9314    -0.1939     4.0938 C.ar         1    LIG   0.0000
  36 C36          2.5239    -0.1817     5.4236 C.ar         1    LIG   0.0000
  37 H           -1.3950    -0.4320    -0.2979 H            1    LIG   0.0000
  38 H            0.0630     1.0391     8.5513 H            1    LIG   0.0000
  39 H            0.0035     1.8497     7.1350 H            1    LIG   0.0000
  40 H            0.0033     0.2168     7.1417 H            1    LIG   0.0000
  41 H            2.2279     1.8530     7.9847 H            1    LIG   0.0000
  42 H            2.2278     0.2201     7.9914 H            1    LIG   0.0000
  43 H            2.3740     3.1045     5.8958 H            1    LIG   0.0000
  44 H            3.0779     3.0874     3.6045 H            1    LIG   0.0000
  45 H           -0.3737    -0.8880     1.1765 H            1    LIG   0.0000
  46 H            1.1239    -1.2190     1.7373 H            1    LIG   0.0000
  47 H            1.1752    -2.5484    -2.6156 H            1    LIG   0.0000
  48 H            0.4996    -1.2537    -3.3463 H            1    LIG   0.0000
  49 H            0.2503    -3.6016    -4.7883 H            1    LIG   0.0000
  50 H           -1.4987    -5.0559    -5.5351 H            1    LIG   0.0000
  51 H           -3.5649    -5.1508    -4.3464 H            1    LIG   0.0000
  52 H           -3.9073    -3.7970    -2.4018 H            1    LIG   0.0000
  53 H           -2.0916    -2.6329    -0.4221 H            1    LIG   0.0000
  54 H           -3.2017    -1.7515    -1.2331 H            1    LIG   0.0000
  55 H            7.3571     0.9992     0.8377 H            1    LIG   0.0000
  56 H            9.3158     1.0062     2.2173 H            1    LIG   0.0000
  57 H            7.0562     1.0330     5.5824 H            1    LIG   0.0000
  58 H            5.0425     1.0262     4.2843 H            1    LIG   0.0000
  59 H            3.0790    -1.0606     3.6174 H            1    LIG   0.0000
  60 H            2.3770    -1.0434     5.9094 H            1    LIG   0.0000
@<TRIPOS>BOND
   1        1        2 1
   2        2        3 1
   3        3        4 ar
   4        4        5 ar
   5        5        6 ar
   6        6        7 1
   7        7        8 1
   8        8        9 1
   9        9       10 1
  10       10       11 1
  11       11       12 2
  12       11       13 am
  13       13       14 1
  14       14       15 1
  15       15       16 ar
  16       16       17 ar
  17       17       18 ar
  18       18       19 ar
  19       19       20 ar
  20       20       15 ar
  21       20       21 1
  22       21       22 1
  23       22       13 1
  24       22       23 1
  25       23       24 ar
  26       23       25 ar
  27        8       26 2
  28       26       27 1
  29       27       28 2
  30       28        7 1
  31       28       29 1
  32       29       30 ar
  33       30       31 ar
  34       31       32 ar
  35       32       33 ar
  36       33       34 ar
  37       34       29 ar
  38        6       35 ar
  39       35       36 ar
  40       36        3 ar
  41       22       37 1
  42        1       38 1
  43        1       39 1
  44        1       40 1
  45        2       41 1
  46        2       42 1
  47        4       43 1
  48        5       44 1
  49       10       45 1
  50       10       46 1
  51       14       47 1
  52       14       48 1
  53       16       49 1
  54       17       50 1
  55       18       51 1
  56       19       52 1
  57       21       53 1
  58       21       54 1
  59       30       55 1
  60       31       56 1
  61       33       57 1
  62       34       58 1
  63       35       59 1
  64       36       60 1

