@<TRIPOS>MOLECULE
*****
 60 64 0 0 0
SMALL
USER_CHARGES

@<TRIPOS>ATOM
      1 C1          3.0964    1.0383    8.4358 C.3     1  LIG1        0.0000
      2 C2          1.8750    1.0347    7.5311 C.3     1  LIG1        0.0000
      3 C3          2.3207    1.0287    6.0779 C.3     1  LIG1        0.0000
      4 C4          2.5214    2.2378    5.4192 C.3     1  LIG1        0.0000
      5 C5          2.9295    2.2258    4.0898 C.3     1  LIG1        0.0000
      6 C6          3.1312    1.0147    3.4349 C.3     1  LIG1        0.0000
      7 N7          3.5412    1.0083    2.0961 N.pl3   1  LIG1        0.0000
      8 C8          2.7401    1.0000    1.0000 C.2     1  LIG1        0.0000
      9 S9          1.0000    1.0000    1.0000 S.3     1  LIG1        0.0000
     10 C10         0.6052   -0.7664    1.0120 C.3     1  LIG1        0.0000
     11 C11        -0.9039   -0.9482    1.0132 C.2     1  LIG1        0.0000
     12 O12        -1.4996   -1.0129    2.0529 O.2     1  LIG1        0.0000
     13 N13        -1.5992   -1.0402   -0.1991 N.am    1  LIG1        0.0000
     14 C14        -0.8176   -0.9490   -1.4418 C.3     1  LIG1        0.0000
     15 C15        -1.5677   -1.5940   -2.5960 C.3     1  LIG1        0.0000
     16 C16        -0.9187   -2.3004   -3.6031 C.3     1  LIG1        0.0000
     17 C17        -1.6392   -2.8660   -4.6499 C.3     1  LIG1        0.0000
     18 C18        -3.0206   -2.7180   -4.7025 C.3     1  LIG1        0.0000
     19 C19        -3.6839   -2.0162   -3.7020 C.3     1  LIG1        0.0000
     20 C20        -2.9519   -1.4801   -2.6506 C.3     1  LIG1        0.0000
     21 C21        -3.6902   -0.7650   -1.5326 C.3     1  LIG1        0.0000
     22 C22        -3.0614   -1.2166   -0.2232 C.3     1  LIG1        0.0000
     23 C23        -3.6395   -0.4213    0.9370 C.3     1  LIG1        0.0000
     24 O24        -4.7626   -0.7169    1.3994 O.2     1  LIG1        0.0000
     25 O25        -3.0122    0.4977    1.4126 O.2     1  LIG1       -1.0000
     26 N26         3.5119    0.9928   -0.0619 N.2     1  LIG1        0.0000
     27 N27         4.7676    0.9962    0.3288 N.2     1  LIG1        0.0000
     28 C28         4.8211    1.0055    1.6384 C.2     1  LIG1        0.0000
     29 C29         6.0270    1.0107    2.4458 C.3     1  LIG1        0.0000
     30 C30         7.2759    1.0058    1.8343 C.3     1  LIG1        0.0000
     31 C31         8.4096    1.0102    2.6401 C.3     1  LIG1        0.0000
     32 N32         8.3029    1.0199    3.9772 N.pl3   1  LIG1        0.0000
     33 C33         7.1064    1.0257    4.5837 C.3     1  LIG1        0.0000
     34 C34         5.9352    1.0215    3.8336 C.3     1  LIG1        0.0000
     35 C35         2.9314   -0.1939    4.0938 C.3     1  LIG1        0.0000
     36 C36         2.5239   -0.1817    5.4236 C.3     1  LIG1        0.0000
     37 H          -3.2702   -2.1846   -0.0842 H       1  LIG1        0.0000
     38 H           2.8032    1.0423    9.3918 H       1  LIG1        0.0000
     39 H           3.6448    0.2210    8.2587 H       1  LIG1        0.0000
     40 H           3.6449    1.8540    8.2520 H       1  LIG1        0.0000
     41 H           1.3264    0.2190    7.7149 H       1  LIG1        0.0000
     42 H           1.3266    1.8520    7.7082 H       1  LIG1        0.0000
     43 H           2.3740    3.1045    5.8958 H       1  LIG1        0.0000
     44 H           3.0779    3.0874    3.6045 H       1  LIG1        0.0000
     45 H           0.9925   -1.1890    1.8314 H       1  LIG1        0.0000
     46 H           0.9925   -1.2000    0.1984 H       1  LIG1        0.0000
     47 H           0.0565   -1.4181   -1.3152 H       1  LIG1        0.0000
     48 H          -0.6514    0.0137   -1.6553 H       1  LIG1        0.0000
     49 H           0.0756   -2.4027   -3.5744 H       1  LIG1        0.0000
     50 H          -1.1637   -3.3789   -5.3646 H       1  LIG1        0.0000
     51 H          -3.5374   -3.1165   -5.4602 H       1  LIG1        0.0000
     52 H          -4.6763   -1.8989   -3.7391 H       1  LIG1        0.0000
     53 H          -4.6597   -1.0094   -1.5501 H       1  LIG1        0.0000
     54 H          -3.5941    0.2250   -1.6360 H       1  LIG1        0.0000
     55 H           7.3571    0.9992    0.8377 H       1  LIG1        0.0000
     56 H           9.3158    1.0062    2.2173 H       1  LIG1        0.0000
     57 H           7.0562    1.0330    5.5824 H       1  LIG1        0.0000
     58 H           5.0425    1.0262    4.2843 H       1  LIG1        0.0000
     59 H           3.0790   -1.0606    3.6174 H       1  LIG1        0.0000
     60 H           2.3770   -1.0434    5.9094 H       1  LIG1        0.0000
@<TRIPOS>UNITY_ATOM_ATTR
24 1
charge -1
@<TRIPOS>BOND
     1     1     2    1
     2     2     3    1
     3     3     4   ar
     4     4     5   ar
     5     5     6   ar
     6     6     7    1
     7     7     8    1
     8     8     9    1
     9     9    10    1
    10    10    11    1
    11    11    12    2
    12    11    13   am
    13    13    14    1
    14    14    15    1
    15    15    16   ar
    16    16    17   ar
    17    17    18   ar
    18    18    19   ar
    19    19    20   ar
    20    20    15   ar
    21    20    21    1
    22    21    22    1
    23    22    13    1
    24    22    23    1
    25    23    24    1
    26    23    25    2
    27     8    26    2
    28    26    27    1
    29    27    28    2
    30    28     7    1
    31    28    29    1
    32    29    30   ar
    33    30    31   ar
    34    31    32   ar
    35    32    33   ar
    36    33    34   ar
    37    34    29   ar
    38     6    35   ar
    39    35    36   ar
    40    36     3   ar
    41    22    37    1
    42     1    38    1
    43     1    39    1
    44     1    40    1
    45     2    41    1
    46     2    42    1
    47     4    43    1
    48     5    44    1
    49    10    45    1
    50    10    46    1
    51    14    47    1
    52    14    48    1
    53    16    49    1
    54    17    50    1
    55    18    51    1
    56    19    52    1
    57    21    53    1
    58    21    54    1
    59    30    55    1
    60    31    56    1
    61    33    57    1
    62    34    58    1
    63    35    59    1
    64    36    60    1
