@<TRIPOS>MOLECULE
*****
 60 64 0 0 0
SMALL
USER_CHARGES

@<TRIPOS>ATOM
      1 C1          3.0964   -6.4358    1.0383 C.3     1  LIG1        0.0000
      2 C2          1.8750   -5.5311    1.0347 C.3     1  LIG1        0.0000
      3 C3          2.3207   -4.0779    1.0287 C.3     1  LIG1        0.0000
      4 C4          2.5214   -3.4192    2.2378 C.3     1  LIG1        0.0000
      5 C5          2.9295   -2.0898    2.2258 C.3     1  LIG1        0.0000
      6 C6          3.1312   -1.4349    1.0147 C.3     1  LIG1        0.0000
      7 N7          3.5412   -0.0961    1.0083 N.pl3   1  LIG1        0.0000
      8 C8          2.7401    1.0000    1.0000 C.2     1  LIG1        0.0000
      9 S9          1.0000    1.0000    1.0000 S.3     1  LIG1        0.0000
     10 C10         0.6052   -0.7664    1.0120 C.3     1  LIG1        0.0000
     11 C11        -0.9039   -0.9482    1.0132 C.2     1  LIG1        0.0000
     12 O12        -1.4996   -1.0129    2.0529 O.2     1  LIG1        0.0000
     13 N13        -1.5999   -1.0403   -0.2004 N.am    1  LIG1        0.0000
     14 C14        -3.0609   -1.2133   -0.1450 C.3     1  LIG1        0.0000
     15 C15        -3.5422   -1.8314   -1.4492 C.3     1  LIG1        0.0000
     16 C16        -4.6167   -2.7138   -1.4436 C.3     1  LIG1        0.0000
     17 C17        -5.0453   -3.2612   -2.6486 C.3     1  LIG1        0.0000
     18 C18        -4.4263   -2.9330   -3.8503 C.3     1  LIG1        0.0000
     19 C19        -3.3519   -2.0501   -3.8615 C.3     1  LIG1        0.0000
     20 C20        -2.9127   -1.5231   -2.6516 C.3     1  LIG1        0.0000
     21 C21        -1.7068   -0.5941   -2.6316 C.3     1  LIG1        0.0000
     22 C22        -0.8240   -0.9553   -1.4487 C.3     1  LIG1        0.0000
     23 C23        -0.0638   -2.2375   -1.7535 C.3     1  LIG1        0.0000
     24 O24         0.9365   -2.2080   -2.5026 O.2     1  LIG1        0.0000
     25 O25        -0.4275   -3.2858   -1.2709 O.2     1  LIG1       -1.0000
     26 N26         3.5119    2.0619    0.9928 N.2     1  LIG1        0.0000
     27 N27         4.7676    1.6712    0.9962 N.2     1  LIG1        0.0000
     28 C28         4.8211    0.3616    1.0055 C.2     1  LIG1        0.0000
     29 C29         6.0270   -0.4458    1.0107 C.3     1  LIG1        0.0000
     30 C30         7.2759    0.1657    1.0058 C.3     1  LIG1        0.0000
     31 C31         8.4096   -0.6401    1.0102 C.3     1  LIG1        0.0000
     32 N32         8.3029   -1.9772    1.0199 N.pl3   1  LIG1        0.0000
     33 C33         7.1064   -2.5837    1.0257 C.3     1  LIG1        0.0000
     34 C34         5.9352   -1.8336    1.0215 C.3     1  LIG1        0.0000
     35 C35         2.9314   -2.0938   -0.1939 C.3     1  LIG1        0.0000
     36 C36         2.5239   -3.4236   -0.1817 C.3     1  LIG1        0.0000
     37 H          -0.1515   -0.2235   -1.3381 H       1  LIG1        0.0000
     38 H           2.8032   -7.3918    1.0423 H       1  LIG1        0.0000
     39 H           3.6448   -6.2587    0.2210 H       1  LIG1        0.0000
     40 H           3.6449   -6.2520    1.8540 H       1  LIG1        0.0000
     41 H           1.3264   -5.7149    0.2190 H       1  LIG1        0.0000
     42 H           1.3266   -5.7082    1.8520 H       1  LIG1        0.0000
     43 H           2.3740   -3.8958    3.1045 H       1  LIG1        0.0000
     44 H           3.0779   -1.6045    3.0874 H       1  LIG1        0.0000
     45 H           0.9925   -1.1890    1.8314 H       1  LIG1        0.0000
     46 H           0.9925   -1.2000    0.1984 H       1  LIG1        0.0000
     47 H          -3.4982   -0.3234   -0.0153 H       1  LIG1        0.0000
     48 H          -3.2976   -1.8153    0.6176 H       1  LIG1        0.0000
     49 H          -5.0743   -2.9512   -0.5868 H       1  LIG1        0.0000
     50 H          -5.8125   -3.9026   -2.6510 H       1  LIG1        0.0000
     51 H          -4.7541   -3.3321   -4.7066 H       1  LIG1        0.0000
     52 H          -2.9050   -1.7997   -4.7203 H       1  LIG1        0.0000
     53 H          -2.0147    0.3532   -2.5433 H       1  LIG1        0.0000
     54 H          -1.1889   -0.6985   -3.4807 H       1  LIG1        0.0000
     55 H           7.3571    1.1623    0.9992 H       1  LIG1        0.0000
     56 H           9.3158   -0.2173    1.0062 H       1  LIG1        0.0000
     57 H           7.0562   -3.5824    1.0330 H       1  LIG1        0.0000
     58 H           5.0425   -2.2843    1.0262 H       1  LIG1        0.0000
     59 H           3.0790   -1.6174   -1.0606 H       1  LIG1        0.0000
     60 H           2.3770   -3.9094   -1.0434 H       1  LIG1        0.0000
@<TRIPOS>UNITY_ATOM_ATTR
24 1
charge -1
@<TRIPOS>BOND
     1     1     2    1
     2     2     3    1
     3     3     4   ar
     4     4     5   ar
     5     5     6   ar
     6     6     7    1
     7     7     8    1
     8     8     9    1
     9     9    10    1
    10    10    11    1
    11    11    12    2
    12    11    13   am
    13    13    14    1
    14    14    15    1
    15    15    16   ar
    16    16    17   ar
    17    17    18   ar
    18    18    19   ar
    19    19    20   ar
    20    20    15   ar
    21    20    21    1
    22    21    22    1
    23    22    13    1
    24    22    23    1
    25    23    24    1
    26    23    25    2
    27     8    26    2
    28    26    27    1
    29    27    28    2
    30    28     7    1
    31    28    29    1
    32    29    30   ar
    33    30    31   ar
    34    31    32   ar
    35    32    33   ar
    36    33    34   ar
    37    34    29   ar
    38     6    35   ar
    39    35    36   ar
    40    36     3   ar
    41    22    37    1
    42     1    38    1
    43     1    39    1
    44     1    40    1
    45     2    41    1
    46     2    42    1
    47     4    43    1
    48     5    44    1
    49    10    45    1
    50    10    46    1
    51    14    47    1
    52    14    48    1
    53    16    49    1
    54    17    50    1
    55    18    51    1
    56    19    52    1
    57    21    53    1
    58    21    54    1
    59    30    55    1
    60    31    56    1
    61    33    57    1
    62    34    58    1
    63    35    59    1
    64    36    60    1
