@<TRIPOS>MOLECULE

  60   63
SMALL
USER_CHARGES
@<TRIPOS>ATOM
   1 C1           9.1169     5.6440     0.7257 C.3          1    LIG   0.0000
   2 O2           8.3914     4.6444     1.4263 O.3          1    LIG   0.0000
   3 C3           7.3167     4.1454     0.7793 C.ar         1    LIG   0.0000
   4 C4           6.9967     4.6223    -0.4878 C.ar         1    LIG   0.0000
   5 C5           5.8871     4.1009    -1.1446 C.ar         1    LIG   0.0000
   6 C6           5.1046     3.1165    -0.5504 C.ar         1    LIG   0.0000
   7 C7           5.4431     2.6543     0.7171 C.ar         1    LIG   0.0000
   8 C8           4.5939     1.5790     1.3753 C.3          1    LIG   0.0000
   9 C9           5.1464     1.1984     2.7389 C.3          1    LIG   0.0000
  10 N10          4.5164     0.3273     0.6143 N.am         1    LIG   0.0000
  11 C11          3.1656     0.0230     0.4279 C.2          1    LIG   0.0000
  12 O12          2.7542    -0.9657    -0.1563 O.2          1    LIG   0.0000
  13 N13          2.3508     1.0000     1.0000 N.am         1    LIG   0.0000
  14 N14          1.0000     1.0000     1.0000 N.2          1    LIG   0.0000
  15 C15          0.4916    -0.1419     0.9930 C.2          1    LIG   0.0000
  16 C16          1.3436    -1.3146     0.9857 C.2          1    LIG   0.0000
  17 C17          2.2628    -1.6498     1.9327 C.2          1    LIG   0.0000
  18 N18          2.8234    -2.8183     1.5178 N.pl3        1    LIG   0.0000
  19 C19          3.8709    -3.5496     2.2443 C.3          1    LIG   0.0000
  20 C20          3.3651    -4.9379     2.6010 C.3          1    LIG   0.0000
  21 C21          5.1060    -3.6704     1.3666 C.3          1    LIG   0.0000
  22 C22          4.2249    -2.7969     3.5165 C.3          1    LIG   0.0000
  23 N23          2.2829    -3.1855     0.3784 N.2          1    LIG   0.0000
  24 C24          1.3756    -2.3161    -0.0015 C.2          1    LIG   0.0000
  25 C25          0.5658    -2.3803    -1.2030 C.ar         1    LIG   0.0000
  26 C26         -0.3613    -1.3771    -1.4719 C.ar         1    LIG   0.0000
  27 C27         -1.1384    -1.4385    -2.6244 C.ar         1    LIG   0.0000
  28 C28         -0.9810    -2.5067    -3.5013 C.ar         1    LIG   0.0000
  29 C29         -0.0577    -3.5145    -3.2415 C.ar         1    LIG   0.0000
  30 C30          0.7149    -3.4446    -2.0865 C.ar         1    LIG   0.0000
  31 Cl31         1.8912    -4.7431    -1.7705 Cl           1    LIG   0.0000
  32 C32          3.1501     1.9841     1.5760 C.2          1    LIG   0.0000
  33 O33          2.7619     2.9984     2.1269 O.2          1    LIG   0.0000
  34 C34          6.5481     3.1617     1.3924 C.ar         1    LIG   0.0000
  35 H            9.8890     5.9482     1.2836 H            1    LIG   0.0000
  36 H            9.4565     5.2671    -0.1361 H            1    LIG   0.0000
  37 H            8.5162     6.4207     0.5360 H            1    LIG   0.0000
  38 H            7.5562     5.3294    -0.9201 H            1    LIG   0.0000
  39 H            5.6489     4.4381    -2.0554 H            1    LIG   0.0000
  40 H            4.3085     2.7456    -1.0286 H            1    LIG   0.0000
  41 H            5.2228     2.0171     3.3080 H            1    LIG   0.0000
  42 H            4.5303     0.5440     3.1774 H            1    LIG   0.0000
  43 H            6.0496     0.7835     2.6287 H            1    LIG   0.0000
  44 H            5.2923    -0.2121     0.2872 H            1    LIG   0.0000
  45 H           -0.5029    -0.2464     0.9923 H            1    LIG   0.0000
  46 H            2.4816    -1.1402     2.7648 H            1    LIG   0.0000
  47 H            4.0778    -5.4355     3.0953 H            1    LIG   0.0000
  48 H            2.5525    -4.8584     3.1784 H            1    LIG   0.0000
  49 H            3.1321    -5.4331     1.7641 H            1    LIG   0.0000
  50 H            5.8188    -4.1681     1.8609 H            1    LIG   0.0000
  51 H            4.8731    -4.1656     0.5297 H            1    LIG   0.0000
  52 H            5.4388    -2.7571     1.1319 H            1    LIG   0.0000
  53 H            4.9377    -3.2945     4.0108 H            1    LIG   0.0000
  54 H            4.5577    -1.8836     3.2817 H            1    LIG   0.0000
  55 H            3.4124    -2.7174     4.0938 H            1    LIG   0.0000
  56 H           -0.4687    -0.6123    -0.8367 H            1    LIG   0.0000
  57 H           -1.8054    -0.7197    -2.8209 H            1    LIG   0.0000
  58 H           -1.5391    -2.5509    -4.3299 H            1    LIG   0.0000
  59 H            0.0492    -4.2793    -3.8768 H            1    LIG   0.0000
  60 H            6.7859     2.8250     2.3034 H            1    LIG   0.0000
@<TRIPOS>BOND
   1        1        2 1
   2        2        3 1
   3        3        4 ar
   4        4        5 ar
   5        5        6 ar
   6        6        7 ar
   7        7        8 1
   8        8        9 1
   9        8       10 1
  10       10       11 am
  11       11       12 2
  12       11       13 am
  13       13       14 1
  14       14       15 2
  15       15       16 1
  16       16       17 2
  17       17       18 1
  18       18       19 1
  19       19       20 1
  20       19       21 1
  21       19       22 1
  22       18       23 1
  23       23       24 2
  24       24       16 1
  25       24       25 1
  26       25       26 ar
  27       26       27 ar
  28       27       28 ar
  29       28       29 ar
  30       29       30 ar
  31       30       25 ar
  32       30       31 1
  33       13       32 am
  34       32        8 1
  35       32       33 2
  36        7       34 ar
  37       34        3 ar
  38        1       35 1
  39        1       36 1
  40        1       37 1
  41        4       38 1
  42        5       39 1
  43        6       40 1
  44        9       41 1
  45        9       42 1
  46        9       43 1
  47       10       44 1
  48       15       45 1
  49       17       46 1
  50       20       47 1
  51       20       48 1
  52       20       49 1
  53       21       50 1
  54       21       51 1
  55       21       52 1
  56       22       53 1
  57       22       54 1
  58       22       55 1
  59       26       56 1
  60       27       57 1
  61       28       58 1
  62       29       59 1
  63       34       60 1

@<TRIPOS>MOLECULE

  60   63
SMALL
USER_CHARGES
@<TRIPOS>ATOM
   1 C1           6.0580     6.1037    -2.4702 C.3          1    LIG   0.0000
   2 O2           5.1841     5.1267    -1.9240 O.3          1    LIG   0.0000
   3 C3           5.6948     4.3891    -0.9153 C.ar         1    LIG   0.0000
   4 C4           6.9978     4.6218    -0.4870 C.ar         1    LIG   0.0000
   5 C5           7.5134     3.8555     0.5528 C.ar         1    LIG   0.0000
   6 C6           6.7435     2.8699     1.1613 C.ar         1    LIG   0.0000
   7 C7           5.4431     2.6543     0.7171 C.ar         1    LIG   0.0000
   8 C8           4.5939     1.5790     1.3753 C.3          1    LIG   0.0000
   9 C9           5.1464     1.1984     2.7389 C.3          1    LIG   0.0000
  10 N10          4.5164     0.3273     0.6143 N.am         1    LIG   0.0000
  11 C11          3.1656     0.0230     0.4279 C.2          1    LIG   0.0000
  12 O12          2.7542    -0.9657    -0.1563 O.2          1    LIG   0.0000
  13 N13          2.3508     1.0000     1.0000 N.am         1    LIG   0.0000
  14 N14          1.0000     1.0000     1.0000 N.2          1    LIG   0.0000
  15 C15          0.4916    -0.1419     0.9930 C.2          1    LIG   0.0000
  16 C16          1.3436    -1.3146     0.9857 C.2          1    LIG   0.0000
  17 C17          2.2628    -1.6498     1.9327 C.2          1    LIG   0.0000
  18 N18          2.8234    -2.8183     1.5178 N.pl3        1    LIG   0.0000
  19 C19          3.8709    -3.5496     2.2443 C.3          1    LIG   0.0000
  20 C20          3.3651    -4.9379     2.6010 C.3          1    LIG   0.0000
  21 C21          5.1060    -3.6704     1.3666 C.3          1    LIG   0.0000
  22 C22          4.2249    -2.7969     3.5165 C.3          1    LIG   0.0000
  23 N23          2.2829    -3.1855     0.3784 N.2          1    LIG   0.0000
  24 C24          1.3756    -2.3161    -0.0015 C.2          1    LIG   0.0000
  25 C25          0.5658    -2.3803    -1.2030 C.ar         1    LIG   0.0000
  26 C26         -0.3613    -1.3771    -1.4719 C.ar         1    LIG   0.0000
  27 C27         -1.1384    -1.4385    -2.6244 C.ar         1    LIG   0.0000
  28 C28         -0.9810    -2.5067    -3.5013 C.ar         1    LIG   0.0000
  29 C29         -0.0577    -3.5145    -3.2415 C.ar         1    LIG   0.0000
  30 C30          0.7149    -3.4446    -2.0865 C.ar         1    LIG   0.0000
  31 Cl31         1.8912    -4.7431    -1.7705 Cl           1    LIG   0.0000
  32 C32          3.1501     1.9841     1.5760 C.2          1    LIG   0.0000
  33 O33          2.7619     2.9984     2.1269 O.2          1    LIG   0.0000
  34 C34          4.9073     3.4085    -0.3214 C.ar         1    LIG   0.0000
  35 H            5.5912     6.5944    -3.2059 H            1    LIG   0.0000
  36 H            6.3241     6.7499    -1.7550 H            1    LIG   0.0000
  37 H            6.8740     5.6547    -2.8343 H            1    LIG   0.0000
  38 H            7.5555     5.3297    -0.9205 H            1    LIG   0.0000
  39 H            8.4493     4.0152     0.8668 H            1    LIG   0.0000
  40 H            7.1203     2.3230     1.9089 H            1    LIG   0.0000
  41 H            5.2228     2.0171     3.3080 H            1    LIG   0.0000
  42 H            4.5303     0.5440     3.1774 H            1    LIG   0.0000
  43 H            6.0496     0.7835     2.6287 H            1    LIG   0.0000
  44 H            5.2923    -0.2121     0.2872 H            1    LIG   0.0000
  45 H           -0.5029    -0.2464     0.9923 H            1    LIG   0.0000
  46 H            2.4816    -1.1402     2.7648 H            1    LIG   0.0000
  47 H            4.0778    -5.4355     3.0953 H            1    LIG   0.0000
  48 H            2.5525    -4.8584     3.1784 H            1    LIG   0.0000
  49 H            3.1321    -5.4331     1.7641 H            1    LIG   0.0000
  50 H            5.8188    -4.1681     1.8609 H            1    LIG   0.0000
  51 H            4.8731    -4.1656     0.5297 H            1    LIG   0.0000
  52 H            5.4388    -2.7571     1.1319 H            1    LIG   0.0000
  53 H            4.9377    -3.2945     4.0108 H            1    LIG   0.0000
  54 H            4.5577    -1.8836     3.2817 H            1    LIG   0.0000
  55 H            3.4124    -2.7174     4.0938 H            1    LIG   0.0000
  56 H           -0.4687    -0.6123    -0.8367 H            1    LIG   0.0000
  57 H           -1.8054    -0.7197    -2.8209 H            1    LIG   0.0000
  58 H           -1.5391    -2.5509    -4.3299 H            1    LIG   0.0000
  59 H            0.0492    -4.2793    -3.8768 H            1    LIG   0.0000
  60 H            3.9717     3.2484    -0.6358 H            1    LIG   0.0000
@<TRIPOS>BOND
   1        1        2 1
   2        2        3 1
   3        3        4 ar
   4        4        5 ar
   5        5        6 ar
   6        6        7 ar
   7        7        8 1
   8        8        9 1
   9        8       10 1
  10       10       11 am
  11       11       12 2
  12       11       13 am
  13       13       14 1
  14       14       15 2
  15       15       16 1
  16       16       17 2
  17       17       18 1
  18       18       19 1
  19       19       20 1
  20       19       21 1
  21       19       22 1
  22       18       23 1
  23       23       24 2
  24       24       16 1
  25       24       25 1
  26       25       26 ar
  27       26       27 ar
  28       27       28 ar
  29       28       29 ar
  30       29       30 ar
  31       30       25 ar
  32       30       31 1
  33       13       32 am
  34       32        8 1
  35       32       33 2
  36        7       34 ar
  37       34        3 ar
  38        1       35 1
  39        1       36 1
  40        1       37 1
  41        4       38 1
  42        5       39 1
  43        6       40 1
  44        9       41 1
  45        9       42 1
  46        9       43 1
  47       10       44 1
  48       15       45 1
  49       17       46 1
  50       20       47 1
  51       20       48 1
  52       20       49 1
  53       21       50 1
  54       21       51 1
  55       21       52 1
  56       22       53 1
  57       22       54 1
  58       22       55 1
  59       26       56 1
  60       27       57 1
  61       28       58 1
  62       29       59 1
  63       34       60 1

@<TRIPOS>MOLECULE

  60   63
SMALL
USER_CHARGES
@<TRIPOS>ATOM
   1 C1           4.8892     6.5007     1.8018 C.3          1    LIG   0.0000
   2 O2           5.8810     6.2535     0.8161 O.3          1    LIG   0.0000
   3 C3           6.0470     4.9591     0.4705 C.ar         1    LIG   0.0000
   4 C4           6.9974     4.6217    -0.4879 C.ar         1    LIG   0.0000
   5 C5           7.1594     3.2849    -0.8361 C.ar         1    LIG   0.0000
   6 C6           6.3873     2.2943    -0.2388 C.ar         1    LIG   0.0000
   7 C7           5.4431     2.6543     0.7171 C.ar         1    LIG   0.0000
   8 C8           4.5939     1.5790     1.3753 C.3          1    LIG   0.0000
   9 C9           5.1464     1.1984     2.7389 C.3          1    LIG   0.0000
  10 N10          4.5164     0.3273     0.6143 N.am         1    LIG   0.0000
  11 C11          3.1656     0.0230     0.4279 C.2          1    LIG   0.0000
  12 O12          2.7542    -0.9657    -0.1563 O.2          1    LIG   0.0000
  13 N13          2.3508     1.0000     1.0000 N.am         1    LIG   0.0000
  14 N14          1.0000     1.0000     1.0000 N.2          1    LIG   0.0000
  15 C15          0.4916    -0.1419     0.9930 C.2          1    LIG   0.0000
  16 C16          1.3436    -1.3146     0.9857 C.2          1    LIG   0.0000
  17 C17          2.2628    -1.6498     1.9327 C.2          1    LIG   0.0000
  18 N18          2.8234    -2.8183     1.5178 N.pl3        1    LIG   0.0000
  19 C19          3.8709    -3.5496     2.2443 C.3          1    LIG   0.0000
  20 C20          3.7356    -5.0378     1.9662 C.3          1    LIG   0.0000
  21 C21          5.2372    -3.0700     1.7820 C.3          1    LIG   0.0000
  22 C22          3.7233    -3.2974     3.7359 C.3          1    LIG   0.0000
  23 N23          2.2829    -3.1855     0.3784 N.2          1    LIG   0.0000
  24 C24          1.3756    -2.3161    -0.0015 C.2          1    LIG   0.0000
  25 C25          0.5658    -2.3803    -1.2030 C.ar         1    LIG   0.0000
  26 C26          1.1689    -2.6023    -2.4379 C.ar         1    LIG   0.0000
  27 C27          0.3923    -2.6637    -3.5907 C.ar         1    LIG   0.0000
  28 C28         -0.9861    -2.5018    -3.4981 C.ar         1    LIG   0.0000
  29 C29         -1.5985    -2.2790    -2.2690 C.ar         1    LIG   0.0000
  30 C30         -0.8138    -2.2191    -1.1216 C.ar         1    LIG   0.0000
  31 Cl31        -1.6147    -1.9333     0.4425 Cl           1    LIG   0.0000
  32 C32          3.1501     1.9841     1.5760 C.2          1    LIG   0.0000
  33 O33          2.7619     2.9984     2.1269 O.2          1    LIG   0.0000
  34 C34          5.2639     3.9849     1.0803 C.ar         1    LIG   0.0000
  35 H            4.8420     7.4820     1.9884 H            1    LIG   0.0000
  36 H            4.0018     6.1816     1.4691 H            1    LIG   0.0000
  37 H            5.1253     6.0126     2.6420 H            1    LIG   0.0000
  38 H            7.5558     5.3298    -0.9200 H            1    LIG   0.0000
  39 H            7.8395     3.0330    -1.5245 H            1    LIG   0.0000
  40 H            6.5095     1.3350    -0.4934 H            1    LIG   0.0000
  41 H            5.2228     2.0171     3.3080 H            1    LIG   0.0000
  42 H            4.5303     0.5440     3.1774 H            1    LIG   0.0000
  43 H            6.0496     0.7835     2.6287 H            1    LIG   0.0000
  44 H            5.2923    -0.2121     0.2872 H            1    LIG   0.0000
  45 H           -0.5029    -0.2464     0.9923 H            1    LIG   0.0000
  46 H            2.4816    -1.1402     2.7648 H            1    LIG   0.0000
  47 H            4.4483    -5.5355     2.4605 H            1    LIG   0.0000
  48 H            2.8367    -5.3534     2.2703 H            1    LIG   0.0000
  49 H            3.8326    -5.2037     0.9848 H            1    LIG   0.0000
  50 H            5.9499    -3.5676     2.2763 H            1    LIG   0.0000
  51 H            5.3342    -3.2359     0.8007 H            1    LIG   0.0000
  52 H            5.3262    -2.0909     1.9650 H            1    LIG   0.0000
  53 H            4.4361    -3.7950     4.2302 H            1    LIG   0.0000
  54 H            3.8124    -2.3183     3.9188 H            1    LIG   0.0000
  55 H            2.8245    -3.6130     4.0400 H            1    LIG   0.0000
  56 H            2.1605    -2.7177    -2.4964 H            1    LIG   0.0000
  57 H            0.8221    -2.8230    -4.4795 H            1    LIG   0.0000
  58 H           -1.5446    -2.5462    -4.3264 H            1    LIG   0.0000
  59 H           -2.5901    -2.1633    -2.2109 H            1    LIG   0.0000
  60 H            4.5834     4.2369     1.7683 H            1    LIG   0.0000
@<TRIPOS>BOND
   1        1        2 1
   2        2        3 1
   3        3        4 ar
   4        4        5 ar
   5        5        6 ar
   6        6        7 ar
   7        7        8 1
   8        8        9 1
   9        8       10 1
  10       10       11 am
  11       11       12 2
  12       11       13 am
  13       13       14 1
  14       14       15 2
  15       15       16 1
  16       16       17 2
  17       17       18 1
  18       18       19 1
  19       19       20 1
  20       19       21 1
  21       19       22 1
  22       18       23 1
  23       23       24 2
  24       24       16 1
  25       24       25 1
  26       25       26 ar
  27       26       27 ar
  28       27       28 ar
  29       28       29 ar
  30       29       30 ar
  31       30       25 ar
  32       30       31 1
  33       13       32 am
  34       32        8 1
  35       32       33 2
  36        7       34 ar
  37       34        3 ar
  38        1       35 1
  39        1       36 1
  40        1       37 1
  41        4       38 1
  42        5       39 1
  43        6       40 1
  44        9       41 1
  45        9       42 1
  46        9       43 1
  47       10       44 1
  48       15       45 1
  49       17       46 1
  50       20       47 1
  51       20       48 1
  52       20       49 1
  53       21       50 1
  54       21       51 1
  55       21       52 1
  56       22       53 1
  57       22       54 1
  58       22       55 1
  59       26       56 1
  60       27       57 1
  61       28       58 1
  62       29       59 1
  63       34       60 1

@<TRIPOS>MOLECULE

  60   63
SMALL
USER_CHARGES
@<TRIPOS>ATOM
   1 C1           9.1169     3.0844    -3.1590 C.3          1    LIG   0.0000
   2 O2           8.3914     3.1914    -1.9431 O.3          1    LIG   0.0000
   3 C3           7.3167     2.3816    -1.8344 C.ar         1    LIG   0.0000
   4 C4           6.9967     1.5226    -2.8809 C.ar         1    LIG   0.0000
   5 C5           5.8871     0.6932    -2.7578 C.ar         1    LIG   0.0000
   6 C6           5.1046     0.7156    -1.6082 C.ar         1    LIG   0.0000
   7 C7           5.4431     1.5822    -0.5741 C.ar         1    LIG   0.0000
   8 C8           4.5939     1.6145     0.6862 C.3          1    LIG   0.0000
   9 C9           5.1464     2.6051     1.6977 C.3          1    LIG   0.0000
  10 N10          4.5164     0.3296     1.3897 N.am         1    LIG   0.0000
  11 C11          3.1656     0.0160     1.5600 C.2          1    LIG   0.0000
  12 O12          2.7542    -0.9842     2.1242 O.2          1    LIG   0.0000
  13 N13          2.3508     1.0000     1.0000 N.am         1    LIG   0.0000
  14 N14          1.0000     1.0000     1.0000 N.2          1    LIG   0.0000
  15 C15          0.4916    -0.1419     0.9930 C.2          1    LIG   0.0000
  16 C16          1.3436    -1.3146     0.9857 C.2          1    LIG   0.0000
  17 C17          2.2602    -1.6399     0.0328 C.2          1    LIG   0.0000
  18 N18          2.8201    -2.8140     0.4327 N.pl3        1    LIG   0.0000
  19 C19          3.8698    -3.5347    -0.3011 C.3          1    LIG   0.0000
  20 C20          5.1052    -3.6611     0.5754 C.3          1    LIG   0.0000
  21 C21          3.3680    -4.9206    -0.6724 C.3          1    LIG   0.0000
  22 C22          4.2218    -2.7678    -1.5654 C.3          1    LIG   0.0000
  23 N23          2.2805    -3.1946     1.5681 N.2          1    LIG   0.0000
  24 C24          1.3756    -2.3282     1.9605 C.2          1    LIG   0.0000
  25 C25          0.5703    -2.4039     3.1644 C.ar         1    LIG   0.0000
  26 C26         -0.3537    -1.4019     3.4479 C.ar         1    LIG   0.0000
  27 C27         -1.1262    -1.4742     4.6028 C.ar         1    LIG   0.0000
  28 C28         -0.9672    -2.5521     5.4675 C.ar         1    LIG   0.0000
  29 C29         -0.0464    -3.5583     5.1936 C.ar         1    LIG   0.0000
  30 C30          0.7218    -3.4775     4.0363 C.ar         1    LIG   0.0000
  31 Cl31         1.8950    -4.7741     3.7021 Cl           1    LIG   0.0000
  32 C32          3.1501     1.9909     0.4357 C.2          1    LIG   0.0000
  33 O33          2.7619     2.9751    -0.1672 O.2          1    LIG   0.0000
  34 C34          6.5481     2.4207    -0.6759 C.ar         1    LIG   0.0000
  35 H            9.8890     3.7197    -3.1435 H            1    LIG   0.0000
  36 H            9.4565     2.1497    -3.2635 H            1    LIG   0.0000
  37 H            8.5162     3.3085    -3.9264 H            1    LIG   0.0000
  38 H            7.5562     1.5019    -3.7094 H            1    LIG   0.0000
  39 H            5.6489     0.0730    -3.5052 H            1    LIG   0.0000
  40 H            4.3085     0.1160    -1.5260 H            1    LIG   0.0000
  41 H            5.2228     3.5073     1.2732 H            1    LIG   0.0000
  42 H            4.5303     2.6577     2.4836 H            1    LIG   0.0000
  43 H            6.0496     2.3022     2.0018 H            1    LIG   0.0000
  44 H            5.2923    -0.2234     1.6933 H            1    LIG   0.0000
  45 H           -0.5029    -0.2464     0.9923 H            1    LIG   0.0000
  46 H            2.4779    -1.1210    -0.7938 H            1    LIG   0.0000
  47 H            5.8194    -4.1515     0.0760 H            1    LIG   0.0000
  48 H            5.4353    -2.7493     0.8196 H            1    LIG   0.0000
  49 H            4.8736    -4.1656     1.4071 H            1    LIG   0.0000
  50 H            4.0822    -5.4111    -1.1717 H            1    LIG   0.0000
  51 H            3.1364    -5.4252     0.1594 H            1    LIG   0.0000
  52 H            2.5552    -4.8375    -1.2490 H            1    LIG   0.0000
  53 H            4.9360    -3.2582    -2.0647 H            1    LIG   0.0000
  54 H            3.4091    -2.6847    -2.1420 H            1    LIG   0.0000
  55 H            4.5519    -1.8560    -1.3212 H            1    LIG   0.0000
  56 H           -0.4622    -0.6302     2.8213 H            1    LIG   0.0000
  57 H           -1.7909    -0.7563     4.8098 H            1    LIG   0.0000
  58 H           -1.5226    -2.6045     6.2975 H            1    LIG   0.0000
  59 H            0.0621    -4.3298     5.8205 H            1    LIG   0.0000
  60 H            6.7859     3.0413     0.0713 H            1    LIG   0.0000
@<TRIPOS>BOND
   1        1        2 1
   2        2        3 1
   3        3        4 ar
   4        4        5 ar
   5        5        6 ar
   6        6        7 ar
   7        7        8 1
   8        8        9 1
   9        8       10 1
  10       10       11 am
  11       11       12 2
  12       11       13 am
  13       13       14 1
  14       14       15 2
  15       15       16 1
  16       16       17 2
  17       17       18 1
  18       18       19 1
  19       19       20 1
  20       19       21 1
  21       19       22 1
  22       18       23 1
  23       23       24 2
  24       24       16 1
  25       24       25 1
  26       25       26 ar
  27       26       27 ar
  28       27       28 ar
  29       28       29 ar
  30       29       30 ar
  31       30       25 ar
  32       30       31 1
  33       13       32 am
  34       32        8 1
  35       32       33 2
  36        7       34 ar
  37       34        3 ar
  38        1       35 1
  39        1       36 1
  40        1       37 1
  41        4       38 1
  42        5       39 1
  43        6       40 1
  44        9       41 1
  45        9       42 1
  46        9       43 1
  47       10       44 1
  48       15       45 1
  49       17       46 1
  50       20       47 1
  51       20       48 1
  52       20       49 1
  53       21       50 1
  54       21       51 1
  55       21       52 1
  56       22       53 1
  57       22       54 1
  58       22       55 1
  59       26       56 1
  60       27       57 1
  61       28       58 1
  62       29       59 1
  63       34       60 1

@<TRIPOS>MOLECULE

  60   63
SMALL
USER_CHARGES
@<TRIPOS>ATOM
   1 C1           7.9656     3.7419    -3.9516 C.3          1    LIG   0.0000
   2 O2           7.1844     3.8809    -2.7740 O.3          1    LIG   0.0000
   3 C3           6.7062     2.7302    -2.2546 C.ar         1    LIG   0.0000
   4 C4           6.9970     1.5223    -2.8807 C.ar         1    LIG   0.0000
   5 C5           6.4986     0.3433    -2.3367 C.ar         1    LIG   0.0000
   6 C6           5.7213     0.3632    -1.1836 C.ar         1    LIG   0.0000
   7 C7           5.4431     1.5822    -0.5741 C.ar         1    LIG   0.0000
   8 C8           4.5939     1.6145     0.6862 C.3          1    LIG   0.0000
   9 C9           5.1464     2.6051     1.6977 C.3          1    LIG   0.0000
  10 N10          4.5164     0.3296     1.3897 N.am         1    LIG   0.0000
  11 C11          3.1656     0.0160     1.5600 C.2          1    LIG   0.0000
  12 O12          2.7542    -0.9842     2.1242 O.2          1    LIG   0.0000
  13 N13          2.3508     1.0000     1.0000 N.am         1    LIG   0.0000
  14 N14          1.0000     1.0000     1.0000 N.2          1    LIG   0.0000
  15 C15          0.4916    -0.1419     0.9930 C.2          1    LIG   0.0000
  16 C16          1.3436    -1.3146     0.9857 C.2          1    LIG   0.0000
  17 C17          2.2602    -1.6399     0.0328 C.2          1    LIG   0.0000
  18 N18          2.8201    -2.8140     0.4327 N.pl3        1    LIG   0.0000
  19 C19          3.8698    -3.5347    -0.3011 C.3          1    LIG   0.0000
  20 C20          3.3581    -3.9053    -1.6836 C.3          1    LIG   0.0000
  21 C21          5.0953    -2.6457    -0.4359 C.3          1    LIG   0.0000
  22 C22          4.2415    -4.7985     0.4571 C.3          1    LIG   0.0000
  23 N23          2.2805    -3.1946     1.5681 N.2          1    LIG   0.0000
  24 C24          1.3756    -2.3282     1.9605 C.2          1    LIG   0.0000
  25 C25          0.5703    -2.4039     3.1644 C.ar         1    LIG   0.0000
  26 C26          1.0303    -1.8307     4.3467 C.ar         1    LIG   0.0000
  27 C27          0.2581    -1.9033     5.5018 C.ar         1    LIG   0.0000
  28 C28         -0.9722    -2.5511     5.4643 C.ar         1    LIG   0.0000
  29 C29         -1.4408    -3.1276     4.2880 C.ar         1    LIG   0.0000
  30 C30         -0.6616    -3.0500     3.1379 C.ar         1    LIG   0.0000
  31 Cl31        -1.2772    -3.7934     1.6420 Cl           1    LIG   0.0000
  32 C32          3.1501     1.9909     0.4357 C.2          1    LIG   0.0000
  33 O33          2.7619     2.9751    -0.1672 O.2          1    LIG   0.0000
  34 C34          5.9307     2.7734    -1.1010 C.ar         1    LIG   0.0000
  35 H            8.2716     4.6437    -4.2570 H            1    LIG   0.0000
  36 H            8.7612     3.1678    -3.7581 H            1    LIG   0.0000
  37 H            7.4142     3.3164    -4.6692 H            1    LIG   0.0000
  38 H            7.5560     1.5021    -3.7095 H            1    LIG   0.0000
  39 H            6.7018    -0.5297    -2.7802 H            1    LIG   0.0000
  40 H            5.3667    -0.4884    -0.7974 H            1    LIG   0.0000
  41 H            5.2228     3.5073     1.2732 H            1    LIG   0.0000
  42 H            4.5303     2.6577     2.4836 H            1    LIG   0.0000
  43 H            6.0496     2.3022     2.0018 H            1    LIG   0.0000
  44 H            5.2923    -0.2234     1.6933 H            1    LIG   0.0000
  45 H           -0.5029    -0.2464     0.9923 H            1    LIG   0.0000
  46 H            2.4779    -1.1210    -0.7938 H            1    LIG   0.0000
  47 H            4.0724    -4.3957    -2.1830 H            1    LIG   0.0000
  48 H            2.5519    -4.4901    -1.5950 H            1    LIG   0.0000
  49 H            3.1136    -3.0738    -2.1825 H            1    LIG   0.0000
  50 H            5.8096    -3.1362    -0.9352 H            1    LIG   0.0000
  51 H            4.8508    -1.8143    -0.9347 H            1    LIG   0.0000
  52 H            5.4319    -2.4019     0.4736 H            1    LIG   0.0000
  53 H            4.9557    -5.2890    -0.0422 H            1    LIG   0.0000
  54 H            4.5781    -4.5547     1.3667 H            1    LIG   0.0000
  55 H            3.4352    -5.3834     0.5458 H            1    LIG   0.0000
  56 H            1.9159    -1.3666     4.3657 H            1    LIG   0.0000
  57 H            0.5853    -1.4927     6.3529 H            1    LIG   0.0000
  58 H           -1.5276    -2.6031     6.2942 H            1    LIG   0.0000
  59 H           -2.3263    -3.5918     4.2694 H            1    LIG   0.0000
  60 H            5.7270     3.6464    -0.6578 H            1    LIG   0.0000
@<TRIPOS>BOND
   1        1        2 1
   2        2        3 1
   3        3        4 ar
   4        4        5 ar
   5        5        6 ar
   6        6        7 ar
   7        7        8 1
   8        8        9 1
   9        8       10 1
  10       10       11 am
  11       11       12 2
  12       11       13 am
  13       13       14 1
  14       14       15 2
  15       15       16 1
  16       16       17 2
  17       17       18 1
  18       18       19 1
  19       19       20 1
  20       19       21 1
  21       19       22 1
  22       18       23 1
  23       23       24 2
  24       24       16 1
  25       24       25 1
  26       25       26 ar
  27       26       27 ar
  28       27       28 ar
  29       28       29 ar
  30       29       30 ar
  31       30       25 ar
  32       30       31 1
  33       13       32 am
  34       32        8 1
  35       32       33 2
  36        7       34 ar
  37       34        3 ar
  38        1       35 1
  39        1       36 1
  40        1       37 1
  41        4       38 1
  42        5       39 1
  43        6       40 1
  44        9       41 1
  45        9       42 1
  46        9       43 1
  47       10       44 1
  48       15       45 1
  49       17       46 1
  50       20       47 1
  51       20       48 1
  52       20       49 1
  53       21       50 1
  54       21       51 1
  55       21       52 1
  56       22       53 1
  57       22       54 1
  58       22       55 1
  59       26       56 1
  60       27       57 1
  61       28       58 1
  62       29       59 1
  63       34       60 1

@<TRIPOS>MOLECULE

  60   63
SMALL
USER_CHARGES
@<TRIPOS>ATOM
   1 C1           6.0580     0.5466    -5.1550 C.3          1    LIG   0.0000
   2 O2           5.1841     0.5311    -4.0359 O.3          1    LIG   0.0000
   3 C3           5.6948     1.0358    -2.8926 C.ar         1    LIG   0.0000
   4 C4           6.9978     1.5231    -2.8801 C.ar         1    LIG   0.0000
   5 C5           7.5134     2.0404    -1.6966 C.ar         1    LIG   0.0000
   6 C6           6.7435     2.0746    -0.5387 C.ar         1    LIG   0.0000
   7 C7           5.4431     1.5822    -0.5741 C.ar         1    LIG   0.0000
   8 C8           4.5939     1.6145     0.6862 C.3          1    LIG   0.0000
   9 C9           5.1464     2.6051     1.6977 C.3          1    LIG   0.0000
  10 N10          4.5164     0.3296     1.3897 N.am         1    LIG   0.0000
  11 C11          3.1656     0.0160     1.5600 C.2          1    LIG   0.0000
  12 O12          2.7542    -0.9842     2.1242 O.2          1    LIG   0.0000
  13 N13          2.3508     1.0000     1.0000 N.am         1    LIG   0.0000
  14 N14          1.0000     1.0000     1.0000 N.2          1    LIG   0.0000
  15 C15          0.4916    -0.1419     0.9930 C.2          1    LIG   0.0000
  16 C16          1.3436    -1.3146     0.9857 C.2          1    LIG   0.0000
  17 C17          2.2602    -1.6399     0.0328 C.2          1    LIG   0.0000
  18 N18          2.8201    -2.8140     0.4327 N.pl3        1    LIG   0.0000
  19 C19          3.8698    -3.5347    -0.3011 C.3          1    LIG   0.0000
  20 C20          5.1052    -3.6611     0.5754 C.3          1    LIG   0.0000
  21 C21          3.3680    -4.9206    -0.6724 C.3          1    LIG   0.0000
  22 C22          4.2218    -2.7678    -1.5654 C.3          1    LIG   0.0000
  23 N23          2.2805    -3.1946     1.5681 N.2          1    LIG   0.0000
  24 C24          1.3756    -2.3282     1.9605 C.2          1    LIG   0.0000
  25 C25          0.5703    -2.4039     3.1644 C.ar         1    LIG   0.0000
  26 C26         -0.3537    -1.4019     3.4479 C.ar         1    LIG   0.0000
  27 C27         -1.1262    -1.4742     4.6028 C.ar         1    LIG   0.0000
  28 C28         -0.9672    -2.5521     5.4675 C.ar         1    LIG   0.0000
  29 C29         -0.0464    -3.5583     5.1936 C.ar         1    LIG   0.0000
  30 C30          0.7218    -3.4775     4.0363 C.ar         1    LIG   0.0000
  31 Cl31         1.8950    -4.7741     3.7021 Cl           1    LIG   0.0000
  32 C32          3.1501     1.9909     0.4357 C.2          1    LIG   0.0000
  33 O33          2.7619     2.9751    -0.1672 O.2          1    LIG   0.0000
  34 C34          4.9073     1.0599    -1.7465 C.ar         1    LIG   0.0000
  35 H            5.5912     0.1547    -5.9478 H            1    LIG   0.0000
  36 H            6.3241     1.4891    -5.3571 H            1    LIG   0.0000
  37 H            6.8740     0.0068    -4.9482 H            1    LIG   0.0000
  38 H            7.5555     1.5017    -3.7099 H            1    LIG   0.0000
  39 H            8.4493     2.3922    -1.6778 H            1    LIG   0.0000
  40 H            7.1203     2.4486     0.3087 H            1    LIG   0.0000
  41 H            5.2228     3.5073     1.2732 H            1    LIG   0.0000
  42 H            4.5303     2.6577     2.4836 H            1    LIG   0.0000
  43 H            6.0496     2.3022     2.0018 H            1    LIG   0.0000
  44 H            5.2923    -0.2234     1.6933 H            1    LIG   0.0000
  45 H           -0.5029    -0.2464     0.9923 H            1    LIG   0.0000
  46 H            2.4779    -1.1210    -0.7938 H            1    LIG   0.0000
  47 H            5.8194    -4.1515     0.0760 H            1    LIG   0.0000
  48 H            5.4353    -2.7493     0.8196 H            1    LIG   0.0000
  49 H            4.8736    -4.1656     1.4071 H            1    LIG   0.0000
  50 H            4.0822    -5.4111    -1.1717 H            1    LIG   0.0000
  51 H            3.1364    -5.4252     0.1594 H            1    LIG   0.0000
  52 H            2.5552    -4.8375    -1.2490 H            1    LIG   0.0000
  53 H            4.9360    -3.2582    -2.0647 H            1    LIG   0.0000
  54 H            3.4091    -2.6847    -2.1420 H            1    LIG   0.0000
  55 H            4.5519    -1.8560    -1.3212 H            1    LIG   0.0000
  56 H           -0.4622    -0.6302     2.8213 H            1    LIG   0.0000
  57 H           -1.7909    -0.7563     4.8098 H            1    LIG   0.0000
  58 H           -1.5226    -2.6045     6.2975 H            1    LIG   0.0000
  59 H            0.0621    -4.3298     5.8205 H            1    LIG   0.0000
  60 H            3.9717     0.7076    -1.7651 H            1    LIG   0.0000
@<TRIPOS>BOND
   1        1        2 1
   2        2        3 1
   3        3        4 ar
   4        4        5 ar
   5        5        6 ar
   6        6        7 ar
   7        7        8 1
   8        8        9 1
   9        8       10 1
  10       10       11 am
  11       11       12 2
  12       11       13 am
  13       13       14 1
  14       14       15 2
  15       15       16 1
  16       16       17 2
  17       17       18 1
  18       18       19 1
  19       19       20 1
  20       19       21 1
  21       19       22 1
  22       18       23 1
  23       23       24 2
  24       24       16 1
  25       24       25 1
  26       25       26 ar
  27       26       27 ar
  28       27       28 ar
  29       28       29 ar
  30       29       30 ar
  31       30       25 ar
  32       30       31 1
  33       13       32 am
  34       32        8 1
  35       32       33 2
  36        7       34 ar
  37       34        3 ar
  38        1       35 1
  39        1       36 1
  40        1       37 1
  41        4       38 1
  42        5       39 1
  43        6       40 1
  44        9       41 1
  45        9       42 1
  46        9       43 1
  47       10       44 1
  48       15       45 1
  49       17       46 1
  50       20       47 1
  51       20       48 1
  52       20       49 1
  53       21       50 1
  54       21       51 1
  55       21       52 1
  56       22       53 1
  57       22       54 1
  58       22       55 1
  59       26       56 1
  60       27       57 1
  61       28       58 1
  62       29       59 1
  63       34       60 1

@<TRIPOS>MOLECULE

  60   63
SMALL
USER_CHARGES
@<TRIPOS>ATOM
   1 C1           8.2216    -0.6891    -3.6654 C.3          1    LIG   0.0000
   2 O2           7.4524    -0.7648    -2.4742 O.3          1    LIG   0.0000
   3 C3           6.8421     0.3807    -2.1028 C.ar         1    LIG   0.0000
   4 C4           6.9972     1.5237    -2.8805 C.ar         1    LIG   0.0000
   5 C5           6.3640     2.6981    -2.4879 C.ar         1    LIG   0.0000
   6 C6           5.5846     2.7369    -1.3366 C.ar         1    LIG   0.0000
   7 C7           5.4431     1.5822    -0.5741 C.ar         1    LIG   0.0000
   8 C8           4.5939     1.6145     0.6862 C.3          1    LIG   0.0000
   9 C9           5.1464     2.6051     1.6977 C.3          1    LIG   0.0000
  10 N10          4.5164     0.3296     1.3897 N.am         1    LIG   0.0000
  11 C11          3.1656     0.0160     1.5600 C.2          1    LIG   0.0000
  12 O12          2.7542    -0.9842     2.1242 O.2          1    LIG   0.0000
  13 N13          2.3508     1.0000     1.0000 N.am         1    LIG   0.0000
  14 N14          1.0000     1.0000     1.0000 N.2          1    LIG   0.0000
  15 C15          0.4916    -0.1419     0.9930 C.2          1    LIG   0.0000
  16 C16          1.3436    -1.3146     0.9857 C.2          1    LIG   0.0000
  17 C17          2.2602    -1.6399     0.0328 C.2          1    LIG   0.0000
  18 N18          2.8201    -2.8140     0.4327 N.pl3        1    LIG   0.0000
  19 C19          3.8698    -3.5347    -0.3011 C.3          1    LIG   0.0000
  20 C20          3.3581    -3.9053    -1.6836 C.3          1    LIG   0.0000
  21 C21          5.0953    -2.6457    -0.4359 C.3          1    LIG   0.0000
  22 C22          4.2415    -4.7985     0.4571 C.3          1    LIG   0.0000
  23 N23          2.2805    -3.1946     1.5681 N.2          1    LIG   0.0000
  24 C24          1.3756    -2.3282     1.9605 C.2          1    LIG   0.0000
  25 C25          0.5703    -2.4039     3.1644 C.ar         1    LIG   0.0000
  26 C26         -0.1191    -3.5746     3.4682 C.ar         1    LIG   0.0000
  27 C27         -0.8918    -3.6474     4.6230 C.ar         1    LIG   0.0000
  28 C28         -0.9686    -2.5445     5.4671 C.ar         1    LIG   0.0000
  29 C29         -0.2839    -1.3698     5.1723 C.ar         1    LIG   0.0000
  30 C30          0.4862    -1.3063     4.0152 C.ar         1    LIG   0.0000
  31 Cl31         1.3554     0.2048     3.6541 Cl           1    LIG   0.0000
  32 C32          3.1501     1.9909     0.4357 C.2          1    LIG   0.0000
  33 O33          2.7619     2.9751    -0.1672 O.2          1    LIG   0.0000
  34 C34          6.0677     0.3970    -0.9477 C.ar         1    LIG   0.0000
  35 H            8.6308    -1.5816    -3.8551 H            1    LIG   0.0000
  36 H            7.6308    -0.4245    -4.4275 H            1    LIG   0.0000
  37 H            8.9450    -0.0080    -3.5523 H            1    LIG   0.0000
  38 H            7.5558     1.5013    -3.7097 H            1    LIG   0.0000
  39 H            6.4704     3.5249    -3.0403 H            1    LIG   0.0000
  40 H            5.1315     3.5845    -1.0605 H            1    LIG   0.0000
  41 H            5.2228     3.5073     1.2732 H            1    LIG   0.0000
  42 H            4.5303     2.6577     2.4836 H            1    LIG   0.0000
  43 H            6.0496     2.3022     2.0018 H            1    LIG   0.0000
  44 H            5.2923    -0.2234     1.6933 H            1    LIG   0.0000
  45 H           -0.5029    -0.2464     0.9923 H            1    LIG   0.0000
  46 H            2.4779    -1.1210    -0.7938 H            1    LIG   0.0000
  47 H            4.0724    -4.3957    -2.1830 H            1    LIG   0.0000
  48 H            2.5519    -4.4901    -1.5950 H            1    LIG   0.0000
  49 H            3.1136    -3.0738    -2.1825 H            1    LIG   0.0000
  50 H            5.8096    -3.1362    -0.9352 H            1    LIG   0.0000
  51 H            4.8508    -1.8143    -0.9347 H            1    LIG   0.0000
  52 H            5.4319    -2.4019     0.4736 H            1    LIG   0.0000
  53 H            4.9557    -5.2890    -0.0422 H            1    LIG   0.0000
  54 H            4.5781    -4.5547     1.3667 H            1    LIG   0.0000
  55 H            3.4352    -5.3834     0.5458 H            1    LIG   0.0000
  56 H           -0.0589    -4.3633     2.8565 H            1    LIG   0.0000
  57 H           -1.3884    -4.4866     4.8445 H            1    LIG   0.0000
  58 H           -1.5236    -2.5966     6.2973 H            1    LIG   0.0000
  59 H           -0.3446    -0.5812     5.7841 H            1    LIG   0.0000
  60 H            5.9617    -0.4297    -0.3950 H            1    LIG   0.0000
@<TRIPOS>BOND
   1        1        2 1
   2        2        3 1
   3        3        4 ar
   4        4        5 ar
   5        5        6 ar
   6        6        7 ar
   7        7        8 1
   8        8        9 1
   9        8       10 1
  10       10       11 am
  11       11       12 2
  12       11       13 am
  13       13       14 1
  14       14       15 2
  15       15       16 1
  16       16       17 2
  17       17       18 1
  18       18       19 1
  19       19       20 1
  20       19       21 1
  21       19       22 1
  22       18       23 1
  23       23       24 2
  24       24       16 1
  25       24       25 1
  26       25       26 ar
  27       26       27 ar
  28       27       28 ar
  29       28       29 ar
  30       29       30 ar
  31       30       25 ar
  32       30       31 1
  33       13       32 am
  34       32        8 1
  35       32       33 2
  36        7       34 ar
  37       34        3 ar
  38        1       35 1
  39        1       36 1
  40        1       37 1
  41        4       38 1
  42        5       39 1
  43        6       40 1
  44        9       41 1
  45        9       42 1
  46        9       43 1
  47       10       44 1
  48       15       45 1
  49       17       46 1
  50       20       47 1
  51       20       48 1
  52       20       49 1
  53       21       50 1
  54       21       51 1
  55       21       52 1
  56       22       53 1
  57       22       54 1
  58       22       55 1
  59       26       56 1
  60       27       57 1
  61       28       58 1
  62       29       59 1
  63       34       60 1

@<TRIPOS>MOLECULE

  60   63
SMALL
USER_CHARGES
@<TRIPOS>ATOM
   1 C1           6.9128    -1.9537    -1.9160 C.3          1    LIG   0.0000
   2 O2           7.4524    -0.7648    -2.4742 O.3          1    LIG   0.0000
   3 C3           6.8421     0.3807    -2.1028 C.ar         1    LIG   0.0000
   4 C4           6.9972     1.5237    -2.8805 C.ar         1    LIG   0.0000
   5 C5           6.3640     2.6981    -2.4879 C.ar         1    LIG   0.0000
   6 C6           5.5846     2.7369    -1.3366 C.ar         1    LIG   0.0000
   7 C7           5.4431     1.5822    -0.5741 C.ar         1    LIG   0.0000
   8 C8           4.5939     1.6145     0.6862 C.3          1    LIG   0.0000
   9 C9           5.1464     2.6051     1.6977 C.3          1    LIG   0.0000
  10 N10          4.5164     0.3296     1.3897 N.am         1    LIG   0.0000
  11 C11          3.1656     0.0160     1.5600 C.2          1    LIG   0.0000
  12 O12          2.7542    -0.9842     2.1242 O.2          1    LIG   0.0000
  13 N13          2.3508     1.0000     1.0000 N.am         1    LIG   0.0000
  14 N14          1.0000     1.0000     1.0000 N.2          1    LIG   0.0000
  15 C15          0.4916    -0.1419     0.9930 C.2          1    LIG   0.0000
  16 C16          1.3436    -1.3146     0.9857 C.2          1    LIG   0.0000
  17 C17          2.2602    -1.6399     0.0328 C.2          1    LIG   0.0000
  18 N18          2.8201    -2.8140     0.4327 N.pl3        1    LIG   0.0000
  19 C19          3.8698    -3.5347    -0.3011 C.3          1    LIG   0.0000
  20 C20          5.2346    -3.0560     0.1662 C.3          1    LIG   0.0000
  21 C21          3.7387    -5.0261    -0.0386 C.3          1    LIG   0.0000
  22 C22          3.7216    -3.2675    -1.7901 C.3          1    LIG   0.0000
  23 N23          2.2805    -3.1946     1.5681 N.2          1    LIG   0.0000
  24 C24          1.3756    -2.3282     1.9605 C.2          1    LIG   0.0000
  25 C25          0.5703    -2.4039     3.1644 C.ar         1    LIG   0.0000
  26 C26          1.0303    -1.8307     4.3467 C.ar         1    LIG   0.0000
  27 C27          0.2581    -1.9033     5.5018 C.ar         1    LIG   0.0000
  28 C28         -0.9722    -2.5511     5.4643 C.ar         1    LIG   0.0000
  29 C29         -1.4408    -3.1276     4.2880 C.ar         1    LIG   0.0000
  30 C30         -0.6616    -3.0500     3.1379 C.ar         1    LIG   0.0000
  31 Cl31        -1.2772    -3.7934     1.6420 Cl           1    LIG   0.0000
  32 C32          3.1501     1.9909     0.4357 C.2          1    LIG   0.0000
  33 O33          2.7619     2.9751    -0.1672 O.2          1    LIG   0.0000
  34 C34          6.0677     0.3970    -0.9477 C.ar         1    LIG   0.0000
  35 H            7.4292    -2.7426    -2.2491 H            1    LIG   0.0000
  36 H            6.9746    -1.9118    -0.9188 H            1    LIG   0.0000
  37 H            5.9544    -2.0441    -2.1870 H            1    LIG   0.0000
  38 H            7.5558     1.5013    -3.7097 H            1    LIG   0.0000
  39 H            6.4704     3.5249    -3.0403 H            1    LIG   0.0000
  40 H            5.1315     3.5845    -1.0605 H            1    LIG   0.0000
  41 H            5.2228     3.5073     1.2732 H            1    LIG   0.0000
  42 H            4.5303     2.6577     2.4836 H            1    LIG   0.0000
  43 H            6.0496     2.3022     2.0018 H            1    LIG   0.0000
  44 H            5.2923    -0.2234     1.6933 H            1    LIG   0.0000
  45 H           -0.5029    -0.2464     0.9923 H            1    LIG   0.0000
  46 H            2.4779    -1.1210    -0.7938 H            1    LIG   0.0000
  47 H            5.9488    -3.5464    -0.3331 H            1    LIG   0.0000
  48 H            5.3208    -2.0748    -0.0065 H            1    LIG   0.0000
  49 H            5.3321    -3.2318     1.1458 H            1    LIG   0.0000
  50 H            4.4529    -5.5165    -0.5379 H            1    LIG   0.0000
  51 H            3.8361    -5.2019     0.9410 H            1    LIG   0.0000
  52 H            2.8408    -5.3411    -0.3460 H            1    LIG   0.0000
  53 H            4.4359    -3.7579    -2.2895 H            1    LIG   0.0000
  54 H            2.8237    -3.5824    -2.0976 H            1    LIG   0.0000
  55 H            3.8079    -2.2863    -1.9629 H            1    LIG   0.0000
  56 H            1.9159    -1.3666     4.3657 H            1    LIG   0.0000
  57 H            0.5853    -1.4927     6.3529 H            1    LIG   0.0000
  58 H           -1.5276    -2.6031     6.2942 H            1    LIG   0.0000
  59 H           -2.3263    -3.5918     4.2694 H            1    LIG   0.0000
  60 H            5.9617    -0.4297    -0.3950 H            1    LIG   0.0000
@<TRIPOS>BOND
   1        1        2 1
   2        2        3 1
   3        3        4 ar
   4        4        5 ar
   5        5        6 ar
   6        6        7 ar
   7        7        8 1
   8        8        9 1
   9        8       10 1
  10       10       11 am
  11       11       12 2
  12       11       13 am
  13       13       14 1
  14       14       15 2
  15       15       16 1
  16       16       17 2
  17       17       18 1
  18       18       19 1
  19       19       20 1
  20       19       21 1
  21       19       22 1
  22       18       23 1
  23       23       24 2
  24       24       16 1
  25       24       25 1
  26       25       26 ar
  27       26       27 ar
  28       27       28 ar
  29       28       29 ar
  30       29       30 ar
  31       30       25 ar
  32       30       31 1
  33       13       32 am
  34       32        8 1
  35       32       33 2
  36        7       34 ar
  37       34        3 ar
  38        1       35 1
  39        1       36 1
  40        1       37 1
  41        4       38 1
  42        5       39 1
  43        6       40 1
  44        9       41 1
  45        9       42 1
  46        9       43 1
  47       10       44 1
  48       15       45 1
  49       17       46 1
  50       20       47 1
  51       20       48 1
  52       20       49 1
  53       21       50 1
  54       21       51 1
  55       21       52 1
  56       22       53 1
  57       22       54 1
  58       22       55 1
  59       26       56 1
  60       27       57 1
  61       28       58 1
  62       29       59 1
  63       34       60 1

@<TRIPOS>MOLECULE

  60   63
SMALL
USER_CHARGES
@<TRIPOS>ATOM
   1 C1           8.8999    -0.4979    -0.5336 C.3          1    LIG   0.0000
   2 O2           8.5663     0.1591    -1.7474 O.3          1    LIG   0.0000
   3 C3           7.4053     0.8481    -1.7352 C.ar         1    LIG   0.0000
   4 C4           6.9968     1.5236    -2.8808 C.ar         1    LIG   0.0000
   5 C5           5.7992     2.2302    -2.8565 C.ar         1    LIG   0.0000
   6 C6           5.0154     2.2649    -1.7080 C.ar         1    LIG   0.0000
   7 C7           5.4431     1.5822    -0.5741 C.ar         1    LIG   0.0000
   8 C8           4.5939     1.6145     0.6862 C.3          1    LIG   0.0000
   9 C9           5.1464     2.6051     1.6977 C.3          1    LIG   0.0000
  10 N10          4.5164     0.3296     1.3897 N.am         1    LIG   0.0000
  11 C11          3.1656     0.0160     1.5600 C.2          1    LIG   0.0000
  12 O12          2.7542    -0.9842     2.1242 O.2          1    LIG   0.0000
  13 N13          2.3508     1.0000     1.0000 N.am         1    LIG   0.0000
  14 N14          1.0000     1.0000     1.0000 N.2          1    LIG   0.0000
  15 C15          0.4916    -0.1419     0.9930 C.2          1    LIG   0.0000
  16 C16          1.3436    -1.3146     0.9857 C.2          1    LIG   0.0000
  17 C17          2.2602    -1.6399     0.0328 C.2          1    LIG   0.0000
  18 N18          2.8201    -2.8140     0.4327 N.pl3        1    LIG   0.0000
  19 C19          3.8698    -3.5347    -0.3011 C.3          1    LIG   0.0000
  20 C20          3.3581    -3.9053    -1.6836 C.3          1    LIG   0.0000
  21 C21          5.0953    -2.6457    -0.4359 C.3          1    LIG   0.0000
  22 C22          4.2415    -4.7985     0.4571 C.3          1    LIG   0.0000
  23 N23          2.2805    -3.1946     1.5681 N.2          1    LIG   0.0000
  24 C24          1.3756    -2.3282     1.9605 C.2          1    LIG   0.0000
  25 C25          0.5703    -2.4039     3.1644 C.ar         1    LIG   0.0000
  26 C26         -0.3537    -1.4019     3.4479 C.ar         1    LIG   0.0000
  27 C27         -1.1262    -1.4742     4.6028 C.ar         1    LIG   0.0000
  28 C28         -0.9672    -2.5521     5.4675 C.ar         1    LIG   0.0000
  29 C29         -0.0464    -3.5583     5.1936 C.ar         1    LIG   0.0000
  30 C30          0.7218    -3.4775     4.0363 C.ar         1    LIG   0.0000
  31 Cl31         1.8950    -4.7741     3.7021 Cl           1    LIG   0.0000
  32 C32          3.1501     1.9909     0.4357 C.2          1    LIG   0.0000
  33 O33          2.7619     2.9751    -0.1672 O.2          1    LIG   0.0000
  34 C34          6.6375     0.8696    -0.5759 C.ar         1    LIG   0.0000
  35 H            9.7708    -0.9771    -0.6424 H            1    LIG   0.0000
  36 H            8.9803     0.1772     0.1998 H            1    LIG   0.0000
  37 H            8.1836    -1.1565    -0.3032 H            1    LIG   0.0000
  38 H            7.5561     1.5013    -3.7095 H            1    LIG   0.0000
  39 H            5.4978     2.7194    -3.6749 H            1    LIG   0.0000
  40 H            4.1550     2.7744    -1.6977 H            1    LIG   0.0000
  41 H            5.2228     3.5073     1.2732 H            1    LIG   0.0000
  42 H            4.5303     2.6577     2.4836 H            1    LIG   0.0000
  43 H            6.0496     2.3022     2.0018 H            1    LIG   0.0000
  44 H            5.2923    -0.2234     1.6933 H            1    LIG   0.0000
  45 H           -0.5029    -0.2464     0.9923 H            1    LIG   0.0000
  46 H            2.4779    -1.1210    -0.7938 H            1    LIG   0.0000
  47 H            4.0724    -4.3957    -2.1830 H            1    LIG   0.0000
  48 H            2.5519    -4.4901    -1.5950 H            1    LIG   0.0000
  49 H            3.1136    -3.0738    -2.1825 H            1    LIG   0.0000
  50 H            5.8096    -3.1362    -0.9352 H            1    LIG   0.0000
  51 H            4.8508    -1.8143    -0.9347 H            1    LIG   0.0000
  52 H            5.4319    -2.4019     0.4736 H            1    LIG   0.0000
  53 H            4.9557    -5.2890    -0.0422 H            1    LIG   0.0000
  54 H            4.5781    -4.5547     1.3667 H            1    LIG   0.0000
  55 H            3.4352    -5.3834     0.5458 H            1    LIG   0.0000
  56 H           -0.4622    -0.6302     2.8213 H            1    LIG   0.0000
  57 H           -1.7909    -0.7563     4.8098 H            1    LIG   0.0000
  58 H           -1.5226    -2.6045     6.2975 H            1    LIG   0.0000
  59 H            0.0621    -4.3298     5.8205 H            1    LIG   0.0000
  60 H            6.9391     0.3808     0.2428 H            1    LIG   0.0000
@<TRIPOS>BOND
   1        1        2 1
   2        2        3 1
   3        3        4 ar
   4        4        5 ar
   5        5        6 ar
   6        6        7 ar
   7        7        8 1
   8        8        9 1
   9        8       10 1
  10       10       11 am
  11       11       12 2
  12       11       13 am
  13       13       14 1
  14       14       15 2
  15       15       16 1
  16       16       17 2
  17       17       18 1
  18       18       19 1
  19       19       20 1
  20       19       21 1
  21       19       22 1
  22       18       23 1
  23       23       24 2
  24       24       16 1
  25       24       25 1
  26       25       26 ar
  27       26       27 ar
  28       27       28 ar
  29       28       29 ar
  30       29       30 ar
  31       30       25 ar
  32       30       31 1
  33       13       32 am
  34       32        8 1
  35       32       33 2
  36        7       34 ar
  37       34        3 ar
  38        1       35 1
  39        1       36 1
  40        1       37 1
  41        4       38 1
  42        5       39 1
  43        6       40 1
  44        9       41 1
  45        9       42 1
  46        9       43 1
  47       10       44 1
  48       15       45 1
  49       17       46 1
  50       20       47 1
  51       20       48 1
  52       20       49 1
  53       21       50 1
  54       21       51 1
  55       21       52 1
  56       22       53 1
  57       22       54 1
  58       22       55 1
  59       26       56 1
  60       27       57 1
  61       28       58 1
  62       29       59 1
  63       34       60 1

@<TRIPOS>MOLECULE

  60   63
SMALL
USER_CHARGES
@<TRIPOS>ATOM
   1 C1           6.7224     3.3474    -4.7792 C.3          1    LIG   0.0000
   2 O2           5.8810     3.4674    -3.6416 O.3          1    LIG   0.0000
   3 C3           6.0470     2.5210    -2.6934 C.ar         1    LIG   0.0000
   4 C4           6.9974     1.5223    -2.8804 C.ar         1    LIG   0.0000
   5 C5           7.1594     0.5524    -1.8969 C.ar         1    LIG   0.0000
   6 C6           6.3873     0.5743    -0.7403 C.ar         1    LIG   0.0000
   7 C7           5.4431     1.5822    -0.5741 C.ar         1    LIG   0.0000
   8 C8           4.5939     1.6145     0.6862 C.3          1    LIG   0.0000
   9 C9           5.1464     2.6051     1.6977 C.3          1    LIG   0.0000
  10 N10          4.5164     0.3296     1.3897 N.am         1    LIG   0.0000
  11 C11          3.1656     0.0160     1.5600 C.2          1    LIG   0.0000
  12 O12          2.7542    -0.9842     2.1242 O.2          1    LIG   0.0000
  13 N13          2.3508     1.0000     1.0000 N.am         1    LIG   0.0000
  14 N14          1.0000     1.0000     1.0000 N.2          1    LIG   0.0000
  15 C15          0.4916    -0.1419     0.9930 C.2          1    LIG   0.0000
  16 C16          1.3436    -1.3146     0.9857 C.2          1    LIG   0.0000
  17 C17          2.2602    -1.6399     0.0328 C.2          1    LIG   0.0000
  18 N18          2.8201    -2.8140     0.4327 N.pl3        1    LIG   0.0000
  19 C19          3.8698    -3.5347    -0.3011 C.3          1    LIG   0.0000
  20 C20          5.1052    -3.6611     0.5754 C.3          1    LIG   0.0000
  21 C21          3.3680    -4.9206    -0.6724 C.3          1    LIG   0.0000
  22 C22          4.2218    -2.7678    -1.5654 C.3          1    LIG   0.0000
  23 N23          2.2805    -3.1946     1.5681 N.2          1    LIG   0.0000
  24 C24          1.3756    -2.3282     1.9605 C.2          1    LIG   0.0000
  25 C25          0.5703    -2.4039     3.1644 C.ar         1    LIG   0.0000
  26 C26         -0.1191    -3.5746     3.4682 C.ar         1    LIG   0.0000
  27 C27         -0.8918    -3.6474     4.6230 C.ar         1    LIG   0.0000
  28 C28         -0.9686    -2.5445     5.4671 C.ar         1    LIG   0.0000
  29 C29         -0.2839    -1.3698     5.1723 C.ar         1    LIG   0.0000
  30 C30          0.4862    -1.3063     4.0152 C.ar         1    LIG   0.0000
  31 Cl31         1.3554     0.2048     3.6541 Cl           1    LIG   0.0000
  32 C32          3.1501     1.9909     0.4357 C.2          1    LIG   0.0000
  33 O33          2.7619     2.9751    -0.1672 O.2          1    LIG   0.0000
  34 C34          5.2639     2.5620    -1.5448 C.ar         1    LIG   0.0000
  35 H            6.5250     4.0896    -5.4196 H            1    LIG   0.0000
  36 H            7.6792     3.3997    -4.4931 H            1    LIG   0.0000
  37 H            6.5556     2.4684    -5.2259 H            1    LIG   0.0000
  38 H            7.5558     1.5021    -3.7097 H            1    LIG   0.0000
  39 H            7.8395    -0.1698    -2.0229 H            1    LIG   0.0000
  40 H            6.5095    -0.1258    -0.0368 H            1    LIG   0.0000
  41 H            5.2228     3.5073     1.2732 H            1    LIG   0.0000
  42 H            4.5303     2.6577     2.4836 H            1    LIG   0.0000
  43 H            6.0496     2.3022     2.0018 H            1    LIG   0.0000
  44 H            5.2923    -0.2234     1.6933 H            1    LIG   0.0000
  45 H           -0.5029    -0.2464     0.9923 H            1    LIG   0.0000
  46 H            2.4779    -1.1210    -0.7938 H            1    LIG   0.0000
  47 H            5.8194    -4.1515     0.0760 H            1    LIG   0.0000
  48 H            5.4353    -2.7493     0.8196 H            1    LIG   0.0000
  49 H            4.8736    -4.1656     1.4071 H            1    LIG   0.0000
  50 H            4.0822    -5.4111    -1.1717 H            1    LIG   0.0000
  51 H            3.1364    -5.4252     0.1594 H            1    LIG   0.0000
  52 H            2.5552    -4.8375    -1.2490 H            1    LIG   0.0000
  53 H            4.9360    -3.2582    -2.0647 H            1    LIG   0.0000
  54 H            3.4091    -2.6847    -2.1420 H            1    LIG   0.0000
  55 H            4.5519    -1.8560    -1.3212 H            1    LIG   0.0000
  56 H           -0.0589    -4.3633     2.8565 H            1    LIG   0.0000
  57 H           -1.3884    -4.4866     4.8445 H            1    LIG   0.0000
  58 H           -1.5236    -2.5966     6.2973 H            1    LIG   0.0000
  59 H           -0.3446    -0.5812     5.7841 H            1    LIG   0.0000
  60 H            4.5834     3.2838    -1.4190 H            1    LIG   0.0000
@<TRIPOS>BOND
   1        1        2 1
   2        2        3 1
   3        3        4 ar
   4        4        5 ar
   5        5        6 ar
   6        6        7 ar
   7        7        8 1
   8        8        9 1
   9        8       10 1
  10       10       11 am
  11       11       12 2
  12       11       13 am
  13       13       14 1
  14       14       15 2
  15       15       16 1
  16       16       17 2
  17       17       18 1
  18       18       19 1
  19       19       20 1
  20       19       21 1
  21       19       22 1
  22       18       23 1
  23       23       24 2
  24       24       16 1
  25       24       25 1
  26       25       26 ar
  27       26       27 ar
  28       27       28 ar
  29       28       29 ar
  30       29       30 ar
  31       30       25 ar
  32       30       31 1
  33       13       32 am
  34       32        8 1
  35       32       33 2
  36        7       34 ar
  37       34        3 ar
  38        1       35 1
  39        1       36 1
  40        1       37 1
  41        4       38 1
  42        5       39 1
  43        6       40 1
  44        9       41 1
  45        9       42 1
  46        9       43 1
  47       10       44 1
  48       15       45 1
  49       17       46 1
  50       20       47 1
  51       20       48 1
  52       20       49 1
  53       21       50 1
  54       21       51 1
  55       21       52 1
  56       22       53 1
  57       22       54 1
  58       22       55 1
  59       26       56 1
  60       27       57 1
  61       28       58 1
  62       29       59 1
  63       34       60 1

