@<TRIPOS>MOLECULE
*****
 60 63 0 0 0
SMALL
USER_CHARGES

@<TRIPOS>ATOM
      1 C1          6.7224    3.3474   -4.7792 C.3     1  LIG1        0.0000
      2 O2          5.8810    3.4674   -3.6416 O.2     1  LIG1        0.0000
      3 C3          6.0470    2.5210   -2.6934 C.3     1  LIG1        0.0000
      4 C4          6.9974    1.5223   -2.8804 C.3     1  LIG1        0.0000
      5 C5          7.1594    0.5524   -1.8969 C.3     1  LIG1        0.0000
      6 C6          6.3873    0.5743   -0.7403 C.3     1  LIG1        0.0000
      7 C7          5.4431    1.5822   -0.5741 C.3     1  LIG1        0.0000
      8 C8          4.5939    1.6145    0.6862 C.3     1  LIG1        0.0000
      9 C9          5.1464    2.6051    1.6977 C.3     1  LIG1        0.0000
     10 N10         4.5164    0.3296    1.3897 N.am    1  LIG1        0.0000
     11 C11         3.1656    0.0160    1.5600 C.2     1  LIG1        0.0000
     12 O12         2.7542   -0.9842    2.1242 O.2     1  LIG1        0.0000
     13 N13         2.3508    1.0000    1.0000 N.am    1  LIG1        0.0000
     14 N14         1.0000    1.0000    1.0000 N.2     1  LIG1        0.0000
     15 C15         0.4916   -0.1419    0.9930 C.2     1  LIG1        0.0000
     16 C16         1.3436   -1.3146    0.9857 C.2     1  LIG1        0.0000
     17 C17         2.2602   -1.6399    0.0328 C.2     1  LIG1        0.0000
     18 N18         2.8201   -2.8140    0.4327 N.pl3   1  LIG1        0.0000
     19 C19         3.8698   -3.5347   -0.3011 C.3     1  LIG1        0.0000
     20 C20         5.1052   -3.6611    0.5754 C.3     1  LIG1        0.0000
     21 C21         3.3680   -4.9206   -0.6724 C.3     1  LIG1        0.0000
     22 C22         4.2218   -2.7678   -1.5654 C.3     1  LIG1        0.0000
     23 N23         2.2805   -3.1946    1.5681 N.2     1  LIG1        0.0000
     24 C24         1.3756   -2.3282    1.9605 C.2     1  LIG1        0.0000
     25 C25         0.5703   -2.4039    3.1644 C.3     1  LIG1        0.0000
     26 C26        -0.1191   -3.5746    3.4682 C.3     1  LIG1        0.0000
     27 C27        -0.8918   -3.6474    4.6230 C.3     1  LIG1        0.0000
     28 C28        -0.9686   -2.5445    5.4671 C.3     1  LIG1        0.0000
     29 C29        -0.2839   -1.3698    5.1723 C.3     1  LIG1        0.0000
     30 C30         0.4862   -1.3063    4.0152 C.3     1  LIG1        0.0000
     31 Cl31        1.3554    0.2048    3.6541 Cl      1  LIG1        0.0000
     32 C32         3.1501    1.9909    0.4357 C.2     1  LIG1        0.0000
     33 O33         2.7619    2.9751   -0.1672 O.2     1  LIG1        0.0000
     34 C34         5.2639    2.5620   -1.5448 C.3     1  LIG1        0.0000
     35 H           6.5250    4.0896   -5.4196 H       1  LIG1        0.0000
     36 H           7.6792    3.3997   -4.4931 H       1  LIG1        0.0000
     37 H           6.5556    2.4684   -5.2259 H       1  LIG1        0.0000
     38 H           7.5558    1.5021   -3.7097 H       1  LIG1        0.0000
     39 H           7.8395   -0.1698   -2.0229 H       1  LIG1        0.0000
     40 H           6.5095   -0.1258   -0.0368 H       1  LIG1        0.0000
     41 H           5.2228    3.5073    1.2732 H       1  LIG1        0.0000
     42 H           4.5303    2.6577    2.4836 H       1  LIG1        0.0000
     43 H           6.0496    2.3022    2.0018 H       1  LIG1        0.0000
     44 H           5.2923   -0.2234    1.6933 H       1  LIG1        0.0000
     45 H          -0.5029   -0.2464    0.9923 H       1  LIG1        0.0000
     46 H           2.4779   -1.1210   -0.7938 H       1  LIG1        0.0000
     47 H           5.8194   -4.1515    0.0760 H       1  LIG1        0.0000
     48 H           5.4353   -2.7493    0.8196 H       1  LIG1        0.0000
     49 H           4.8736   -4.1656    1.4071 H       1  LIG1        0.0000
     50 H           4.0822   -5.4111   -1.1717 H       1  LIG1        0.0000
     51 H           3.1364   -5.4252    0.1594 H       1  LIG1        0.0000
     52 H           2.5552   -4.8375   -1.2490 H       1  LIG1        0.0000
     53 H           4.9360   -3.2582   -2.0647 H       1  LIG1        0.0000
     54 H           3.4091   -2.6847   -2.1420 H       1  LIG1        0.0000
     55 H           4.5519   -1.8560   -1.3212 H       1  LIG1        0.0000
     56 H          -0.0589   -4.3633    2.8565 H       1  LIG1        0.0000
     57 H          -1.3884   -4.4866    4.8445 H       1  LIG1        0.0000
     58 H          -1.5236   -2.5966    6.2973 H       1  LIG1        0.0000
     59 H          -0.3446   -0.5812    5.7841 H       1  LIG1        0.0000
     60 H           4.5834    3.2838   -1.4190 H       1  LIG1        0.0000
@<TRIPOS>BOND
     1     1     2    1
     2     2     3    1
     3     3     4   ar
     4     4     5   ar
     5     5     6   ar
     6     6     7   ar
     7     7     8    1
     8     8     9    1
     9     8    10    1
    10    10    11   am
    11    11    12    2
    12    11    13   am
    13    13    14    1
    14    14    15    2
    15    15    16    1
    16    16    17    2
    17    17    18    1
    18    18    19    1
    19    19    20    1
    20    19    21    1
    21    19    22    1
    22    18    23    1
    23    23    24    2
    24    24    16    1
    25    24    25    1
    26    25    26   ar
    27    26    27   ar
    28    27    28   ar
    29    28    29   ar
    30    29    30   ar
    31    30    25   ar
    32    30    31    1
    33    13    32   am
    34    32     8    1
    35    32    33    2
    36     7    34   ar
    37    34     3   ar
    38     1    35    1
    39     1    36    1
    40     1    37    1
    41     4    38    1
    42     5    39    1
    43     6    40    1
    44     9    41    1
    45     9    42    1
    46     9    43    1
    47    10    44    1
    48    15    45    1
    49    17    46    1
    50    20    47    1
    51    20    48    1
    52    20    49    1
    53    21    50    1
    54    21    51    1
    55    21    52    1
    56    22    53    1
    57    22    54    1
    58    22    55    1
    59    26    56    1
    60    27    57    1
    61    28    58    1
    62    29    59    1
    63    34    60    1
