@<TRIPOS>MOLECULE
*****
 60 63 0 0 0
SMALL
USER_CHARGES

@<TRIPOS>ATOM
      1 C1          4.8892    6.5007    1.8018 C.3     1  LIG1        0.0000
      2 O2          5.8810    6.2535    0.8161 O.2     1  LIG1        0.0000
      3 C3          6.0470    4.9591    0.4705 C.3     1  LIG1        0.0000
      4 C4          6.9974    4.6217   -0.4879 C.3     1  LIG1        0.0000
      5 C5          7.1594    3.2849   -0.8361 C.3     1  LIG1        0.0000
      6 C6          6.3873    2.2943   -0.2388 C.3     1  LIG1        0.0000
      7 C7          5.4431    2.6543    0.7171 C.3     1  LIG1        0.0000
      8 C8          4.5939    1.5790    1.3753 C.3     1  LIG1        0.0000
      9 C9          5.1464    1.1984    2.7389 C.3     1  LIG1        0.0000
     10 N10         4.5164    0.3273    0.6143 N.am    1  LIG1        0.0000
     11 C11         3.1656    0.0230    0.4279 C.2     1  LIG1        0.0000
     12 O12         2.7542   -0.9657   -0.1563 O.2     1  LIG1        0.0000
     13 N13         2.3508    1.0000    1.0000 N.am    1  LIG1        0.0000
     14 N14         1.0000    1.0000    1.0000 N.2     1  LIG1        0.0000
     15 C15         0.4916   -0.1419    0.9930 C.2     1  LIG1        0.0000
     16 C16         1.3436   -1.3146    0.9857 C.2     1  LIG1        0.0000
     17 C17         2.2628   -1.6498    1.9327 C.2     1  LIG1        0.0000
     18 N18         2.8234   -2.8183    1.5178 N.pl3   1  LIG1        0.0000
     19 C19         3.8709   -3.5496    2.2443 C.3     1  LIG1        0.0000
     20 C20         3.7356   -5.0378    1.9662 C.3     1  LIG1        0.0000
     21 C21         5.2372   -3.0700    1.7820 C.3     1  LIG1        0.0000
     22 C22         3.7233   -3.2974    3.7359 C.3     1  LIG1        0.0000
     23 N23         2.2829   -3.1855    0.3784 N.2     1  LIG1        0.0000
     24 C24         1.3756   -2.3161   -0.0015 C.2     1  LIG1        0.0000
     25 C25         0.5658   -2.3803   -1.2030 C.3     1  LIG1        0.0000
     26 C26         1.1689   -2.6023   -2.4379 C.3     1  LIG1        0.0000
     27 C27         0.3923   -2.6637   -3.5907 C.3     1  LIG1        0.0000
     28 C28        -0.9861   -2.5018   -3.4981 C.3     1  LIG1        0.0000
     29 C29        -1.5985   -2.2790   -2.2690 C.3     1  LIG1        0.0000
     30 C30        -0.8138   -2.2191   -1.1216 C.3     1  LIG1        0.0000
     31 Cl31       -1.6147   -1.9333    0.4425 Cl      1  LIG1        0.0000
     32 C32         3.1501    1.9841    1.5760 C.2     1  LIG1        0.0000
     33 O33         2.7619    2.9984    2.1269 O.2     1  LIG1        0.0000
     34 C34         5.2639    3.9849    1.0803 C.3     1  LIG1        0.0000
     35 H           4.8420    7.4820    1.9884 H       1  LIG1        0.0000
     36 H           4.0018    6.1816    1.4691 H       1  LIG1        0.0000
     37 H           5.1253    6.0126    2.6420 H       1  LIG1        0.0000
     38 H           7.5558    5.3298   -0.9200 H       1  LIG1        0.0000
     39 H           7.8395    3.0330   -1.5245 H       1  LIG1        0.0000
     40 H           6.5095    1.3350   -0.4934 H       1  LIG1        0.0000
     41 H           5.2228    2.0171    3.3080 H       1  LIG1        0.0000
     42 H           4.5303    0.5440    3.1774 H       1  LIG1        0.0000
     43 H           6.0496    0.7835    2.6287 H       1  LIG1        0.0000
     44 H           5.2923   -0.2121    0.2872 H       1  LIG1        0.0000
     45 H          -0.5029   -0.2464    0.9923 H       1  LIG1        0.0000
     46 H           2.4816   -1.1402    2.7648 H       1  LIG1        0.0000
     47 H           4.4483   -5.5355    2.4605 H       1  LIG1        0.0000
     48 H           2.8367   -5.3534    2.2703 H       1  LIG1        0.0000
     49 H           3.8326   -5.2037    0.9848 H       1  LIG1        0.0000
     50 H           5.9499   -3.5676    2.2763 H       1  LIG1        0.0000
     51 H           5.3342   -3.2359    0.8007 H       1  LIG1        0.0000
     52 H           5.3262   -2.0909    1.9650 H       1  LIG1        0.0000
     53 H           4.4361   -3.7950    4.2302 H       1  LIG1        0.0000
     54 H           3.8124   -2.3183    3.9188 H       1  LIG1        0.0000
     55 H           2.8245   -3.6130    4.0400 H       1  LIG1        0.0000
     56 H           2.1605   -2.7177   -2.4964 H       1  LIG1        0.0000
     57 H           0.8221   -2.8230   -4.4795 H       1  LIG1        0.0000
     58 H          -1.5446   -2.5462   -4.3264 H       1  LIG1        0.0000
     59 H          -2.5901   -2.1633   -2.2109 H       1  LIG1        0.0000
     60 H           4.5834    4.2369    1.7683 H       1  LIG1        0.0000
@<TRIPOS>BOND
     1     1     2    1
     2     2     3    1
     3     3     4   ar
     4     4     5   ar
     5     5     6   ar
     6     6     7   ar
     7     7     8    1
     8     8     9    1
     9     8    10    1
    10    10    11   am
    11    11    12    2
    12    11    13   am
    13    13    14    1
    14    14    15    2
    15    15    16    1
    16    16    17    2
    17    17    18    1
    18    18    19    1
    19    19    20    1
    20    19    21    1
    21    19    22    1
    22    18    23    1
    23    23    24    2
    24    24    16    1
    25    24    25    1
    26    25    26   ar
    27    26    27   ar
    28    27    28   ar
    29    28    29   ar
    30    29    30   ar
    31    30    25   ar
    32    30    31    1
    33    13    32   am
    34    32     8    1
    35    32    33    2
    36     7    34   ar
    37    34     3   ar
    38     1    35    1
    39     1    36    1
    40     1    37    1
    41     4    38    1
    42     5    39    1
    43     6    40    1
    44     9    41    1
    45     9    42    1
    46     9    43    1
    47    10    44    1
    48    15    45    1
    49    17    46    1
    50    20    47    1
    51    20    48    1
    52    20    49    1
    53    21    50    1
    54    21    51    1
    55    21    52    1
    56    22    53    1
    57    22    54    1
    58    22    55    1
    59    26    56    1
    60    27    57    1
    61    28    58    1
    62    29    59    1
    63    34    60    1
