@<TRIPOS>MOLECULE
*****
 60 63 0 0 0
SMALL
USER_CHARGES

@<TRIPOS>ATOM
      1 C1          9.1169    5.6440    0.7257 C.3     1  LIG1        0.0000
      2 O2          8.3914    4.6444    1.4263 O.2     1  LIG1        0.0000
      3 C3          7.3167    4.1454    0.7793 C.3     1  LIG1        0.0000
      4 C4          6.9967    4.6223   -0.4878 C.3     1  LIG1        0.0000
      5 C5          5.8871    4.1009   -1.1446 C.3     1  LIG1        0.0000
      6 C6          5.1046    3.1165   -0.5504 C.3     1  LIG1        0.0000
      7 C7          5.4431    2.6543    0.7171 C.3     1  LIG1        0.0000
      8 C8          4.5939    1.5790    1.3753 C.3     1  LIG1        0.0000
      9 C9          5.1464    1.1984    2.7389 C.3     1  LIG1        0.0000
     10 N10         4.5164    0.3273    0.6143 N.am    1  LIG1        0.0000
     11 C11         3.1656    0.0230    0.4279 C.2     1  LIG1        0.0000
     12 O12         2.7542   -0.9657   -0.1563 O.2     1  LIG1        0.0000
     13 N13         2.3508    1.0000    1.0000 N.am    1  LIG1        0.0000
     14 N14         1.0000    1.0000    1.0000 N.2     1  LIG1        0.0000
     15 C15         0.4916   -0.1419    0.9930 C.2     1  LIG1        0.0000
     16 C16         1.3436   -1.3146    0.9857 C.2     1  LIG1        0.0000
     17 C17         2.2628   -1.6498    1.9327 C.2     1  LIG1        0.0000
     18 N18         2.8234   -2.8183    1.5178 N.pl3   1  LIG1        0.0000
     19 C19         3.8709   -3.5496    2.2443 C.3     1  LIG1        0.0000
     20 C20         3.3651   -4.9379    2.6010 C.3     1  LIG1        0.0000
     21 C21         5.1060   -3.6704    1.3666 C.3     1  LIG1        0.0000
     22 C22         4.2249   -2.7969    3.5165 C.3     1  LIG1        0.0000
     23 N23         2.2829   -3.1855    0.3784 N.2     1  LIG1        0.0000
     24 C24         1.3756   -2.3161   -0.0015 C.2     1  LIG1        0.0000
     25 C25         0.5658   -2.3803   -1.2030 C.3     1  LIG1        0.0000
     26 C26        -0.3613   -1.3771   -1.4719 C.3     1  LIG1        0.0000
     27 C27        -1.1384   -1.4385   -2.6244 C.3     1  LIG1        0.0000
     28 C28        -0.9810   -2.5067   -3.5013 C.3     1  LIG1        0.0000
     29 C29        -0.0577   -3.5145   -3.2415 C.3     1  LIG1        0.0000
     30 C30         0.7149   -3.4446   -2.0865 C.3     1  LIG1        0.0000
     31 Cl31        1.8912   -4.7431   -1.7705 Cl      1  LIG1        0.0000
     32 C32         3.1501    1.9841    1.5760 C.2     1  LIG1        0.0000
     33 O33         2.7619    2.9984    2.1269 O.2     1  LIG1        0.0000
     34 C34         6.5481    3.1617    1.3924 C.3     1  LIG1        0.0000
     35 H           9.8890    5.9482    1.2836 H       1  LIG1        0.0000
     36 H           9.4565    5.2671   -0.1361 H       1  LIG1        0.0000
     37 H           8.5162    6.4207    0.5360 H       1  LIG1        0.0000
     38 H           7.5562    5.3294   -0.9201 H       1  LIG1        0.0000
     39 H           5.6489    4.4381   -2.0554 H       1  LIG1        0.0000
     40 H           4.3085    2.7456   -1.0286 H       1  LIG1        0.0000
     41 H           5.2228    2.0171    3.3080 H       1  LIG1        0.0000
     42 H           4.5303    0.5440    3.1774 H       1  LIG1        0.0000
     43 H           6.0496    0.7835    2.6287 H       1  LIG1        0.0000
     44 H           5.2923   -0.2121    0.2872 H       1  LIG1        0.0000
     45 H          -0.5029   -0.2464    0.9923 H       1  LIG1        0.0000
     46 H           2.4816   -1.1402    2.7648 H       1  LIG1        0.0000
     47 H           4.0778   -5.4355    3.0953 H       1  LIG1        0.0000
     48 H           2.5525   -4.8584    3.1784 H       1  LIG1        0.0000
     49 H           3.1321   -5.4331    1.7641 H       1  LIG1        0.0000
     50 H           5.8188   -4.1681    1.8609 H       1  LIG1        0.0000
     51 H           4.8731   -4.1656    0.5297 H       1  LIG1        0.0000
     52 H           5.4388   -2.7571    1.1319 H       1  LIG1        0.0000
     53 H           4.9377   -3.2945    4.0108 H       1  LIG1        0.0000
     54 H           4.5577   -1.8836    3.2817 H       1  LIG1        0.0000
     55 H           3.4124   -2.7174    4.0938 H       1  LIG1        0.0000
     56 H          -0.4687   -0.6123   -0.8367 H       1  LIG1        0.0000
     57 H          -1.8054   -0.7197   -2.8209 H       1  LIG1        0.0000
     58 H          -1.5391   -2.5509   -4.3299 H       1  LIG1        0.0000
     59 H           0.0492   -4.2793   -3.8768 H       1  LIG1        0.0000
     60 H           6.7859    2.8250    2.3034 H       1  LIG1        0.0000
@<TRIPOS>BOND
     1     1     2    1
     2     2     3    1
     3     3     4   ar
     4     4     5   ar
     5     5     6   ar
     6     6     7   ar
     7     7     8    1
     8     8     9    1
     9     8    10    1
    10    10    11   am
    11    11    12    2
    12    11    13   am
    13    13    14    1
    14    14    15    2
    15    15    16    1
    16    16    17    2
    17    17    18    1
    18    18    19    1
    19    19    20    1
    20    19    21    1
    21    19    22    1
    22    18    23    1
    23    23    24    2
    24    24    16    1
    25    24    25    1
    26    25    26   ar
    27    26    27   ar
    28    27    28   ar
    29    28    29   ar
    30    29    30   ar
    31    30    25   ar
    32    30    31    1
    33    13    32   am
    34    32     8    1
    35    32    33    2
    36     7    34   ar
    37    34     3   ar
    38     1    35    1
    39     1    36    1
    40     1    37    1
    41     4    38    1
    42     5    39    1
    43     6    40    1
    44     9    41    1
    45     9    42    1
    46     9    43    1
    47    10    44    1
    48    15    45    1
    49    17    46    1
    50    20    47    1
    51    20    48    1
    52    20    49    1
    53    21    50    1
    54    21    51    1
    55    21    52    1
    56    22    53    1
    57    22    54    1
    58    22    55    1
    59    26    56    1
    60    27    57    1
    61    28    58    1
    62    29    59    1
    63    34    60    1
