@<TRIPOS>MOLECULE
*****
 60 63 0 0 0
SMALL
USER_CHARGES

@<TRIPOS>ATOM
      1 C1          7.9656    3.7419   -3.9516 C.3     1  LIG1        0.0000
      2 O2          7.1844    3.8809   -2.7740 O.2     1  LIG1        0.0000
      3 C3          6.7062    2.7302   -2.2546 C.3     1  LIG1        0.0000
      4 C4          6.9970    1.5223   -2.8807 C.3     1  LIG1        0.0000
      5 C5          6.4986    0.3433   -2.3367 C.3     1  LIG1        0.0000
      6 C6          5.7213    0.3632   -1.1836 C.3     1  LIG1        0.0000
      7 C7          5.4431    1.5822   -0.5741 C.3     1  LIG1        0.0000
      8 C8          4.5939    1.6145    0.6862 C.3     1  LIG1        0.0000
      9 C9          5.1464    2.6051    1.6977 C.3     1  LIG1        0.0000
     10 N10         4.5164    0.3296    1.3897 N.am    1  LIG1        0.0000
     11 C11         3.1656    0.0160    1.5600 C.2     1  LIG1        0.0000
     12 O12         2.7542   -0.9842    2.1242 O.2     1  LIG1        0.0000
     13 N13         2.3508    1.0000    1.0000 N.am    1  LIG1        0.0000
     14 N14         1.0000    1.0000    1.0000 N.2     1  LIG1        0.0000
     15 C15         0.4916   -0.1419    0.9930 C.2     1  LIG1        0.0000
     16 C16         1.3436   -1.3146    0.9857 C.2     1  LIG1        0.0000
     17 C17         2.2602   -1.6399    0.0328 C.2     1  LIG1        0.0000
     18 N18         2.8201   -2.8140    0.4327 N.pl3   1  LIG1        0.0000
     19 C19         3.8698   -3.5347   -0.3011 C.3     1  LIG1        0.0000
     20 C20         3.3581   -3.9053   -1.6836 C.3     1  LIG1        0.0000
     21 C21         5.0953   -2.6457   -0.4359 C.3     1  LIG1        0.0000
     22 C22         4.2415   -4.7985    0.4571 C.3     1  LIG1        0.0000
     23 N23         2.2805   -3.1946    1.5681 N.2     1  LIG1        0.0000
     24 C24         1.3756   -2.3282    1.9605 C.2     1  LIG1        0.0000
     25 C25         0.5703   -2.4039    3.1644 C.3     1  LIG1        0.0000
     26 C26         1.0303   -1.8307    4.3467 C.3     1  LIG1        0.0000
     27 C27         0.2581   -1.9033    5.5018 C.3     1  LIG1        0.0000
     28 C28        -0.9722   -2.5511    5.4643 C.3     1  LIG1        0.0000
     29 C29        -1.4408   -3.1276    4.2880 C.3     1  LIG1        0.0000
     30 C30        -0.6616   -3.0500    3.1379 C.3     1  LIG1        0.0000
     31 Cl31       -1.2772   -3.7934    1.6420 Cl      1  LIG1        0.0000
     32 C32         3.1501    1.9909    0.4357 C.2     1  LIG1        0.0000
     33 O33         2.7619    2.9751   -0.1672 O.2     1  LIG1        0.0000
     34 C34         5.9307    2.7734   -1.1010 C.3     1  LIG1        0.0000
     35 H           8.2716    4.6437   -4.2570 H       1  LIG1        0.0000
     36 H           8.7612    3.1678   -3.7581 H       1  LIG1        0.0000
     37 H           7.4142    3.3164   -4.6692 H       1  LIG1        0.0000
     38 H           7.5560    1.5021   -3.7095 H       1  LIG1        0.0000
     39 H           6.7018   -0.5297   -2.7802 H       1  LIG1        0.0000
     40 H           5.3667   -0.4884   -0.7974 H       1  LIG1        0.0000
     41 H           5.2228    3.5073    1.2732 H       1  LIG1        0.0000
     42 H           4.5303    2.6577    2.4836 H       1  LIG1        0.0000
     43 H           6.0496    2.3022    2.0018 H       1  LIG1        0.0000
     44 H           5.2923   -0.2234    1.6933 H       1  LIG1        0.0000
     45 H          -0.5029   -0.2464    0.9923 H       1  LIG1        0.0000
     46 H           2.4779   -1.1210   -0.7938 H       1  LIG1        0.0000
     47 H           4.0724   -4.3957   -2.1830 H       1  LIG1        0.0000
     48 H           2.5519   -4.4901   -1.5950 H       1  LIG1        0.0000
     49 H           3.1136   -3.0738   -2.1825 H       1  LIG1        0.0000
     50 H           5.8096   -3.1362   -0.9352 H       1  LIG1        0.0000
     51 H           4.8508   -1.8143   -0.9347 H       1  LIG1        0.0000
     52 H           5.4319   -2.4019    0.4736 H       1  LIG1        0.0000
     53 H           4.9557   -5.2890   -0.0422 H       1  LIG1        0.0000
     54 H           4.5781   -4.5547    1.3667 H       1  LIG1        0.0000
     55 H           3.4352   -5.3834    0.5458 H       1  LIG1        0.0000
     56 H           1.9159   -1.3666    4.3657 H       1  LIG1        0.0000
     57 H           0.5853   -1.4927    6.3529 H       1  LIG1        0.0000
     58 H          -1.5276   -2.6031    6.2942 H       1  LIG1        0.0000
     59 H          -2.3263   -3.5918    4.2694 H       1  LIG1        0.0000
     60 H           5.7270    3.6464   -0.6578 H       1  LIG1        0.0000
@<TRIPOS>BOND
     1     1     2    1
     2     2     3    1
     3     3     4   ar
     4     4     5   ar
     5     5     6   ar
     6     6     7   ar
     7     7     8    1
     8     8     9    1
     9     8    10    1
    10    10    11   am
    11    11    12    2
    12    11    13   am
    13    13    14    1
    14    14    15    2
    15    15    16    1
    16    16    17    2
    17    17    18    1
    18    18    19    1
    19    19    20    1
    20    19    21    1
    21    19    22    1
    22    18    23    1
    23    23    24    2
    24    24    16    1
    25    24    25    1
    26    25    26   ar
    27    26    27   ar
    28    27    28   ar
    29    28    29   ar
    30    29    30   ar
    31    30    25   ar
    32    30    31    1
    33    13    32   am
    34    32     8    1
    35    32    33    2
    36     7    34   ar
    37    34     3   ar
    38     1    35    1
    39     1    36    1
    40     1    37    1
    41     4    38    1
    42     5    39    1
    43     6    40    1
    44     9    41    1
    45     9    42    1
    46     9    43    1
    47    10    44    1
    48    15    45    1
    49    17    46    1
    50    20    47    1
    51    20    48    1
    52    20    49    1
    53    21    50    1
    54    21    51    1
    55    21    52    1
    56    22    53    1
    57    22    54    1
    58    22    55    1
    59    26    56    1
    60    27    57    1
    61    28    58    1
    62    29    59    1
    63    34    60    1
