@<TRIPOS>MOLECULE

  42   45
SMALL
USER_CHARGES
@<TRIPOS>ATOM
   1 C1           0.3887     2.2264     0.6277 C.3          1    LIG   0.0000
   2 O2           1.0000     1.0000     1.0000 O.3          1    LIG   0.0000
   3 C3           2.3466     1.0000     1.0000 C.ar         1    LIG   0.0000
   4 C4           3.0504     2.1458     0.6485 C.ar         1    LIG   0.0000
   5 C5           4.4405     2.1233     0.6402 C.ar         1    LIG   0.0000
   6 C6           5.1403     0.9707     0.9782 C.ar         1    LIG   0.0000
   7 C7           4.4352    -0.1921     1.3513 C.ar         1    LIG   0.0000
   8 C8           3.0424    -0.1449     1.3476 C.ar         1    LIG   0.0000
   9 C9           5.0340    -1.4743     1.7365 C.2          1    LIG   0.0000
  10 C10          4.2685    -2.3951     2.5544 C.ar         1    LIG   0.0000
  11 C11          4.4870    -3.7640     2.4357 C.ar         1    LIG   0.0000
  12 C12          3.7567    -4.6546     3.2157 C.ar         1    LIG   0.0000
  13 C13          2.8121    -4.1583     4.1083 C.ar         1    LIG   0.0000
  14 Cl14         1.8741    -5.2920     5.1095 Cl           1    LIG   0.0000
  15 C15          2.5865    -2.7911     4.2328 C.ar         1    LIG   0.0000
  16 C16          3.3212    -1.9079     3.4485 C.ar         1    LIG   0.0000
  17 N17          6.2074    -1.8934     1.4335 N.2          1    LIG   0.0000
  18 N18          7.1479    -1.2209     0.7141 N.pl3        1    LIG   0.0000
  19 C19          7.4178     0.1676     0.7459 C.2          1    LIG   0.0000
  20 C20          8.8058     0.5667     0.6143 C.ar         1    LIG   0.0000
  21 C21          9.1389     1.9170     0.6380 C.ar         1    LIG   0.0000
  22 C22         10.4725     2.2909     0.5104 C.ar         1    LIG   0.0000
  23 C23         11.4570     1.3187     0.3614 C.ar         1    LIG   0.0000
  24 C24         11.1148    -0.0295     0.3391 C.ar         1    LIG   0.0000
  25 C25          9.7832    -0.4119     0.4654 C.ar         1    LIG   0.0000
  26 N26          6.5459     1.1028     0.8808 N.2          1    LIG   0.0000
  27 H           -0.6058     2.1259     0.6582 H            1    LIG   0.0000
  28 H            0.6707     2.9457     1.2626 H            1    LIG   0.0000
  29 H            0.6707     2.4713    -0.2999 H            1    LIG   0.0000
  30 H            2.5596     2.9817     0.4030 H            1    LIG   0.0000
  31 H            4.9448     2.9489     0.3872 H            1    LIG   0.0000
  32 H            2.5295    -0.9642     1.6041 H            1    LIG   0.0000
  33 H            5.1689    -4.1075     1.7899 H            1    LIG   0.0000
  34 H            3.9089    -5.6398     3.1357 H            1    LIG   0.0000
  35 H            1.9044    -2.4475     4.8783 H            1    LIG   0.0000
  36 H            3.1683    -0.9228     3.5276 H            1    LIG   0.0000
  37 H            7.7100    -1.7691     0.0949 H            1    LIG   0.0000
  38 H            8.4273     2.6114     0.7455 H            1    LIG   0.0000
  39 H           10.7240     3.2586     0.5257 H            1    LIG   0.0000
  40 H           12.4150     1.5905     0.2699 H            1    LIG   0.0000
  41 H           11.8263    -0.7240     0.2322 H            1    LIG   0.0000
  42 H            9.5314    -1.3796     0.4494 H            1    LIG   0.0000
@<TRIPOS>BOND
   1        1        2 1
   2        2        3 1
   3        3        4 ar
   4        4        5 ar
   5        5        6 ar
   6        6        7 ar
   7        7        8 ar
   8        8        3 ar
   9        7        9 1
  10        9       10 1
  11       10       11 ar
  12       11       12 ar
  13       12       13 ar
  14       13       14 1
  15       13       15 ar
  16       15       16 ar
  17       16       10 ar
  18        9       17 2
  19       17       18 1
  20       18       19 1
  21       19       20 1
  22       20       21 ar
  23       21       22 ar
  24       22       23 ar
  25       23       24 ar
  26       24       25 ar
  27       25       20 ar
  28       19       26 2
  29       26        6 1
  30        1       27 1
  31        1       28 1
  32        1       29 1
  33        4       30 1
  34        5       31 1
  35        8       32 1
  36       11       33 1
  37       12       34 1
  38       15       35 1
  39       16       36 1
  40       18       37 1
  41       21       38 1
  42       22       39 1
  43       23       40 1
  44       24       41 1
  45       25       42 1

@<TRIPOS>MOLECULE

  42   45
SMALL
USER_CHARGES
@<TRIPOS>ATOM
   1 C1           0.3887     2.2264     0.6277 C.3          1    LIG   0.0000
   2 O2           1.0000     1.0000     1.0000 O.3          1    LIG   0.0000
   3 C3           2.3466     1.0000     1.0000 C.ar         1    LIG   0.0000
   4 C4           3.0504     2.1458     0.6485 C.ar         1    LIG   0.0000
   5 C5           4.4405     2.1233     0.6402 C.ar         1    LIG   0.0000
   6 C6           5.1403     0.9707     0.9782 C.ar         1    LIG   0.0000
   7 C7           4.4352    -0.1921     1.3513 C.ar         1    LIG   0.0000
   8 C8           3.0424    -0.1449     1.3476 C.ar         1    LIG   0.0000
   9 C9           5.0340    -1.4743     1.7365 C.2          1    LIG   0.0000
  10 C10          4.2685    -2.3951     2.5544 C.ar         1    LIG   0.0000
  11 C11          4.4870    -3.7640     2.4357 C.ar         1    LIG   0.0000
  12 C12          3.7567    -4.6546     3.2157 C.ar         1    LIG   0.0000
  13 C13          2.8121    -4.1583     4.1083 C.ar         1    LIG   0.0000
  14 Cl14         1.8741    -5.2920     5.1095 Cl           1    LIG   0.0000
  15 C15          2.5865    -2.7911     4.2328 C.ar         1    LIG   0.0000
  16 C16          3.3212    -1.9079     3.4485 C.ar         1    LIG   0.0000
  17 N17          6.2074    -1.8934     1.4335 N.2          1    LIG   0.0000
  18 N18          7.1479    -1.2209     0.7141 N.pl3        1    LIG   0.0000
  19 C19          7.4178     0.1676     0.7459 C.2          1    LIG   0.0000
  20 C20          8.8058     0.5667     0.6143 C.ar         1    LIG   0.0000
  21 C21          9.7391     0.1299     1.5487 C.ar         1    LIG   0.0000
  22 C22         11.0681     0.5181     1.4152 C.ar         1    LIG   0.0000
  23 C23         11.4519     1.3344     0.3556 C.ar         1    LIG   0.0000
  24 C24         10.5119     1.7664    -0.5744 C.ar         1    LIG   0.0000
  25 C25          9.1804     1.3832    -0.4478 C.ar         1    LIG   0.0000
  26 N26          6.5459     1.1028     0.8808 N.2          1    LIG   0.0000
  27 H           -0.6058     2.1259     0.6582 H            1    LIG   0.0000
  28 H            0.6707     2.9457     1.2626 H            1    LIG   0.0000
  29 H            0.6707     2.4713    -0.2999 H            1    LIG   0.0000
  30 H            2.5596     2.9817     0.4030 H            1    LIG   0.0000
  31 H            4.9448     2.9489     0.3872 H            1    LIG   0.0000
  32 H            2.5295    -0.9642     1.6041 H            1    LIG   0.0000
  33 H            5.1689    -4.1075     1.7899 H            1    LIG   0.0000
  34 H            3.9089    -5.6398     3.1357 H            1    LIG   0.0000
  35 H            1.9044    -2.4475     4.8783 H            1    LIG   0.0000
  36 H            3.1683    -0.9228     3.5276 H            1    LIG   0.0000
  37 H            7.7100    -1.7691     0.0949 H            1    LIG   0.0000
  38 H            9.4577    -0.4568     2.3080 H            1    LIG   0.0000
  39 H           11.7479     0.2105     2.0809 H            1    LIG   0.0000
  40 H           12.4081     1.6119     0.2622 H            1    LIG   0.0000
  41 H           10.7932     2.3525    -1.3342 H            1    LIG   0.0000
  42 H            8.5002     1.6913    -1.1130 H            1    LIG   0.0000
@<TRIPOS>BOND
   1        1        2 1
   2        2        3 1
   3        3        4 ar
   4        4        5 ar
   5        5        6 ar
   6        6        7 ar
   7        7        8 ar
   8        8        3 ar
   9        7        9 1
  10        9       10 1
  11       10       11 ar
  12       11       12 ar
  13       12       13 ar
  14       13       14 1
  15       13       15 ar
  16       15       16 ar
  17       16       10 ar
  18        9       17 2
  19       17       18 1
  20       18       19 1
  21       19       20 1
  22       20       21 ar
  23       21       22 ar
  24       22       23 ar
  25       23       24 ar
  26       24       25 ar
  27       25       20 ar
  28       19       26 2
  29       26        6 1
  30        1       27 1
  31        1       28 1
  32        1       29 1
  33        4       30 1
  34        5       31 1
  35        8       32 1
  36       11       33 1
  37       12       34 1
  38       15       35 1
  39       16       36 1
  40       18       37 1
  41       21       38 1
  42       22       39 1
  43       23       40 1
  44       24       41 1
  45       25       42 1

@<TRIPOS>MOLECULE

  42   45
SMALL
USER_CHARGES
@<TRIPOS>ATOM
   1 C1           0.3887     2.2264     0.6277 C.3          1    LIG   0.0000
   2 O2           1.0000     1.0000     1.0000 O.3          1    LIG   0.0000
   3 C3           2.3466     1.0000     1.0000 C.ar         1    LIG   0.0000
   4 C4           3.0504     2.1458     0.6485 C.ar         1    LIG   0.0000
   5 C5           4.4405     2.1233     0.6402 C.ar         1    LIG   0.0000
   6 C6           5.1403     0.9707     0.9782 C.ar         1    LIG   0.0000
   7 C7           4.4352    -0.1921     1.3513 C.ar         1    LIG   0.0000
   8 C8           3.0424    -0.1449     1.3476 C.ar         1    LIG   0.0000
   9 C9           5.0340    -1.4743     1.7365 C.2          1    LIG   0.0000
  10 C10          4.2685    -2.3951     2.5544 C.ar         1    LIG   0.0000
  11 C11          4.4870    -3.7640     2.4357 C.ar         1    LIG   0.0000
  12 C12          3.7567    -4.6546     3.2157 C.ar         1    LIG   0.0000
  13 C13          2.8121    -4.1583     4.1083 C.ar         1    LIG   0.0000
  14 Cl14         1.8741    -5.2920     5.1095 Cl           1    LIG   0.0000
  15 C15          2.5865    -2.7911     4.2328 C.ar         1    LIG   0.0000
  16 C16          3.3212    -1.9079     3.4485 C.ar         1    LIG   0.0000
  17 N17          6.2074    -1.8934     1.4335 N.2          1    LIG   0.0000
  18 N18          7.1479    -1.2209     0.7141 N.pl3        1    LIG   0.0000
  19 C19          7.4178     0.1676     0.7459 C.2          1    LIG   0.0000
  20 C20          8.8058     0.5667     0.6143 C.ar         1    LIG   0.0000
  21 C21          9.5156     0.2214    -0.5310 C.ar         1    LIG   0.0000
  22 C22         10.8466     0.6077    -0.6485 C.ar         1    LIG   0.0000
  23 C23         11.4543     1.3318     0.3727 C.ar         1    LIG   0.0000
  24 C24         10.7368     1.6730     1.5146 C.ar         1    LIG   0.0000
  25 C25          9.4052     1.2899     1.6404 C.ar         1    LIG   0.0000
  26 N26          6.5459     1.1028     0.8808 N.2          1    LIG   0.0000
  27 H           -0.6058     2.1259     0.6582 H            1    LIG   0.0000
  28 H            0.6707     2.9457     1.2626 H            1    LIG   0.0000
  29 H            0.6707     2.4713    -0.2999 H            1    LIG   0.0000
  30 H            2.5596     2.9817     0.4030 H            1    LIG   0.0000
  31 H            4.9448     2.9489     0.3872 H            1    LIG   0.0000
  32 H            2.5295    -0.9642     1.6041 H            1    LIG   0.0000
  33 H            5.1689    -4.1075     1.7899 H            1    LIG   0.0000
  34 H            3.9089    -5.6398     3.1357 H            1    LIG   0.0000
  35 H            1.9044    -2.4475     4.8783 H            1    LIG   0.0000
  36 H            3.1683    -0.9228     3.5276 H            1    LIG   0.0000
  37 H            7.7100    -1.7691     0.0949 H            1    LIG   0.0000
  38 H            9.0738    -0.2988    -1.2619 H            1    LIG   0.0000
  39 H           11.3671     0.3651    -1.4672 H            1    LIG   0.0000
  40 H           12.4114     1.6081     0.2854 H            1    LIG   0.0000
  41 H           11.1782     2.1938     2.2452 H            1    LIG   0.0000
  42 H            8.8847     1.5318     2.4593 H            1    LIG   0.0000
@<TRIPOS>BOND
   1        1        2 1
   2        2        3 1
   3        3        4 ar
   4        4        5 ar
   5        5        6 ar
   6        6        7 ar
   7        7        8 ar
   8        8        3 ar
   9        7        9 1
  10        9       10 1
  11       10       11 ar
  12       11       12 ar
  13       12       13 ar
  14       13       14 1
  15       13       15 ar
  16       15       16 ar
  17       16       10 ar
  18        9       17 2
  19       17       18 1
  20       18       19 1
  21       19       20 1
  22       20       21 ar
  23       21       22 ar
  24       22       23 ar
  25       23       24 ar
  26       24       25 ar
  27       25       20 ar
  28       19       26 2
  29       26        6 1
  30        1       27 1
  31        1       28 1
  32        1       29 1
  33        4       30 1
  34        5       31 1
  35        8       32 1
  36       11       33 1
  37       12       34 1
  38       15       35 1
  39       16       36 1
  40       18       37 1
  41       21       38 1
  42       22       39 1
  43       23       40 1
  44       24       41 1
  45       25       42 1

@<TRIPOS>MOLECULE

  42   45
SMALL
USER_CHARGES
@<TRIPOS>ATOM
   1 C1           0.3887     2.2264     0.6277 C.3          1    LIG   0.0000
   2 O2           1.0000     1.0000     1.0000 O.3          1    LIG   0.0000
   3 C3           2.3466     1.0000     1.0000 C.ar         1    LIG   0.0000
   4 C4           3.0504     2.1458     0.6485 C.ar         1    LIG   0.0000
   5 C5           4.4405     2.1233     0.6402 C.ar         1    LIG   0.0000
   6 C6           5.1403     0.9707     0.9782 C.ar         1    LIG   0.0000
   7 C7           4.4352    -0.1921     1.3513 C.ar         1    LIG   0.0000
   8 C8           3.0424    -0.1449     1.3476 C.ar         1    LIG   0.0000
   9 C9           5.0340    -1.4743     1.7365 C.2          1    LIG   0.0000
  10 C10          4.2685    -2.3951     2.5544 C.ar         1    LIG   0.0000
  11 C11          4.7533    -2.7707     3.8032 C.ar         1    LIG   0.0000
  12 C12          4.0261    -3.6541     4.5942 C.ar         1    LIG   0.0000
  13 C13          2.8167    -4.1519     4.1198 C.ar         1    LIG   0.0000
  14 Cl14         1.8808    -5.2825     5.1265 Cl           1    LIG   0.0000
  15 C15          2.3249    -3.7824     2.8719 C.ar         1    LIG   0.0000
  16 C16          3.0591    -2.8987     2.0877 C.ar         1    LIG   0.0000
  17 N17          6.2074    -1.8934     1.4335 N.2          1    LIG   0.0000
  18 N18          7.1479    -1.2209     0.7141 N.pl3        1    LIG   0.0000
  19 C19          7.4178     0.1676     0.7459 C.2          1    LIG   0.0000
  20 C20          8.8058     0.5667     0.6143 C.ar         1    LIG   0.0000
  21 C21          9.1389     1.9170     0.6380 C.ar         1    LIG   0.0000
  22 C22         10.4725     2.2909     0.5104 C.ar         1    LIG   0.0000
  23 C23         11.4570     1.3187     0.3614 C.ar         1    LIG   0.0000
  24 C24         11.1148    -0.0295     0.3391 C.ar         1    LIG   0.0000
  25 C25          9.7832    -0.4119     0.4654 C.ar         1    LIG   0.0000
  26 N26          6.5459     1.1028     0.8808 N.2          1    LIG   0.0000
  27 H           -0.6058     2.1259     0.6582 H            1    LIG   0.0000
  28 H            0.6707     2.9457     1.2626 H            1    LIG   0.0000
  29 H            0.6707     2.4713    -0.2999 H            1    LIG   0.0000
  30 H            2.5596     2.9817     0.4030 H            1    LIG   0.0000
  31 H            4.9448     2.9489     0.3872 H            1    LIG   0.0000
  32 H            2.5295    -0.9642     1.6041 H            1    LIG   0.0000
  33 H            5.6243    -2.4057     4.1321 H            1    LIG   0.0000
  34 H            4.3685    -3.9281     5.4929 H            1    LIG   0.0000
  35 H            1.4541    -4.1476     2.5428 H            1    LIG   0.0000
  36 H            2.7173    -2.6256     1.1884 H            1    LIG   0.0000
  37 H            7.7100    -1.7691     0.0949 H            1    LIG   0.0000
  38 H            8.4273     2.6114     0.7455 H            1    LIG   0.0000
  39 H           10.7240     3.2586     0.5257 H            1    LIG   0.0000
  40 H           12.4150     1.5905     0.2699 H            1    LIG   0.0000
  41 H           11.8263    -0.7240     0.2322 H            1    LIG   0.0000
  42 H            9.5314    -1.3796     0.4494 H            1    LIG   0.0000
@<TRIPOS>BOND
   1        1        2 1
   2        2        3 1
   3        3        4 ar
   4        4        5 ar
   5        5        6 ar
   6        6        7 ar
   7        7        8 ar
   8        8        3 ar
   9        7        9 1
  10        9       10 1
  11       10       11 ar
  12       11       12 ar
  13       12       13 ar
  14       13       14 1
  15       13       15 ar
  16       15       16 ar
  17       16       10 ar
  18        9       17 2
  19       17       18 1
  20       18       19 1
  21       19       20 1
  22       20       21 ar
  23       21       22 ar
  24       22       23 ar
  25       23       24 ar
  26       24       25 ar
  27       25       20 ar
  28       19       26 2
  29       26        6 1
  30        1       27 1
  31        1       28 1
  32        1       29 1
  33        4       30 1
  34        5       31 1
  35        8       32 1
  36       11       33 1
  37       12       34 1
  38       15       35 1
  39       16       36 1
  40       18       37 1
  41       21       38 1
  42       22       39 1
  43       23       40 1
  44       24       41 1
  45       25       42 1

@<TRIPOS>MOLECULE

  42   45
SMALL
USER_CHARGES
@<TRIPOS>ATOM
   1 C1           0.3887     2.2264     0.6277 C.3          1    LIG   0.0000
   2 O2           1.0000     1.0000     1.0000 O.3          1    LIG   0.0000
   3 C3           2.3466     1.0000     1.0000 C.ar         1    LIG   0.0000
   4 C4           3.0504     2.1458     0.6485 C.ar         1    LIG   0.0000
   5 C5           4.4405     2.1233     0.6402 C.ar         1    LIG   0.0000
   6 C6           5.1403     0.9707     0.9782 C.ar         1    LIG   0.0000
   7 C7           4.4352    -0.1921     1.3513 C.ar         1    LIG   0.0000
   8 C8           3.0424    -0.1449     1.3476 C.ar         1    LIG   0.0000
   9 C9           5.0340    -1.4743     1.7365 C.2          1    LIG   0.0000
  10 C10          4.2685    -2.3951     2.5544 C.ar         1    LIG   0.0000
  11 C11          4.7533    -2.7707     3.8032 C.ar         1    LIG   0.0000
  12 C12          4.0261    -3.6541     4.5942 C.ar         1    LIG   0.0000
  13 C13          2.8167    -4.1519     4.1198 C.ar         1    LIG   0.0000
  14 Cl14         1.8808    -5.2825     5.1265 Cl           1    LIG   0.0000
  15 C15          2.3249    -3.7824     2.8719 C.ar         1    LIG   0.0000
  16 C16          3.0591    -2.8987     2.0877 C.ar         1    LIG   0.0000
  17 N17          6.2074    -1.8934     1.4335 N.2          1    LIG   0.0000
  18 N18          7.1479    -1.2209     0.7141 N.pl3        1    LIG   0.0000
  19 C19          7.4178     0.1676     0.7459 C.2          1    LIG   0.0000
  20 C20          8.8058     0.5667     0.6143 C.ar         1    LIG   0.0000
  21 C21          9.7391     0.1299     1.5487 C.ar         1    LIG   0.0000
  22 C22         11.0681     0.5181     1.4152 C.ar         1    LIG   0.0000
  23 C23         11.4519     1.3344     0.3556 C.ar         1    LIG   0.0000
  24 C24         10.5119     1.7664    -0.5744 C.ar         1    LIG   0.0000
  25 C25          9.1804     1.3832    -0.4478 C.ar         1    LIG   0.0000
  26 N26          6.5459     1.1028     0.8808 N.2          1    LIG   0.0000
  27 H           -0.6058     2.1259     0.6582 H            1    LIG   0.0000
  28 H            0.6707     2.9457     1.2626 H            1    LIG   0.0000
  29 H            0.6707     2.4713    -0.2999 H            1    LIG   0.0000
  30 H            2.5596     2.9817     0.4030 H            1    LIG   0.0000
  31 H            4.9448     2.9489     0.3872 H            1    LIG   0.0000
  32 H            2.5295    -0.9642     1.6041 H            1    LIG   0.0000
  33 H            5.6243    -2.4057     4.1321 H            1    LIG   0.0000
  34 H            4.3685    -3.9281     5.4929 H            1    LIG   0.0000
  35 H            1.4541    -4.1476     2.5428 H            1    LIG   0.0000
  36 H            2.7173    -2.6256     1.1884 H            1    LIG   0.0000
  37 H            7.7100    -1.7691     0.0949 H            1    LIG   0.0000
  38 H            9.4577    -0.4568     2.3080 H            1    LIG   0.0000
  39 H           11.7479     0.2105     2.0809 H            1    LIG   0.0000
  40 H           12.4081     1.6119     0.2622 H            1    LIG   0.0000
  41 H           10.7932     2.3525    -1.3342 H            1    LIG   0.0000
  42 H            8.5002     1.6913    -1.1130 H            1    LIG   0.0000
@<TRIPOS>BOND
   1        1        2 1
   2        2        3 1
   3        3        4 ar
   4        4        5 ar
   5        5        6 ar
   6        6        7 ar
   7        7        8 ar
   8        8        3 ar
   9        7        9 1
  10        9       10 1
  11       10       11 ar
  12       11       12 ar
  13       12       13 ar
  14       13       14 1
  15       13       15 ar
  16       15       16 ar
  17       16       10 ar
  18        9       17 2
  19       17       18 1
  20       18       19 1
  21       19       20 1
  22       20       21 ar
  23       21       22 ar
  24       22       23 ar
  25       23       24 ar
  26       24       25 ar
  27       25       20 ar
  28       19       26 2
  29       26        6 1
  30        1       27 1
  31        1       28 1
  32        1       29 1
  33        4       30 1
  34        5       31 1
  35        8       32 1
  36       11       33 1
  37       12       34 1
  38       15       35 1
  39       16       36 1
  40       18       37 1
  41       21       38 1
  42       22       39 1
  43       23       40 1
  44       24       41 1
  45       25       42 1

@<TRIPOS>MOLECULE

  42   45
SMALL
USER_CHARGES
@<TRIPOS>ATOM
   1 C1           0.3887     2.2264     0.6277 C.3          1    LIG   0.0000
   2 O2           1.0000     1.0000     1.0000 O.3          1    LIG   0.0000
   3 C3           2.3466     1.0000     1.0000 C.ar         1    LIG   0.0000
   4 C4           3.0504     2.1458     0.6485 C.ar         1    LIG   0.0000
   5 C5           4.4405     2.1233     0.6402 C.ar         1    LIG   0.0000
   6 C6           5.1403     0.9707     0.9782 C.ar         1    LIG   0.0000
   7 C7           4.4352    -0.1921     1.3513 C.ar         1    LIG   0.0000
   8 C8           3.0424    -0.1449     1.3476 C.ar         1    LIG   0.0000
   9 C9           5.0340    -1.4743     1.7365 C.2          1    LIG   0.0000
  10 C10          4.2685    -2.3951     2.5544 C.ar         1    LIG   0.0000
  11 C11          4.7533    -2.7707     3.8032 C.ar         1    LIG   0.0000
  12 C12          4.0261    -3.6541     4.5942 C.ar         1    LIG   0.0000
  13 C13          2.8167    -4.1519     4.1198 C.ar         1    LIG   0.0000
  14 Cl14         1.8808    -5.2825     5.1265 Cl           1    LIG   0.0000
  15 C15          2.3249    -3.7824     2.8719 C.ar         1    LIG   0.0000
  16 C16          3.0591    -2.8987     2.0877 C.ar         1    LIG   0.0000
  17 N17          6.2074    -1.8934     1.4335 N.2          1    LIG   0.0000
  18 N18          7.1479    -1.2209     0.7141 N.pl3        1    LIG   0.0000
  19 C19          7.4178     0.1676     0.7459 C.2          1    LIG   0.0000
  20 C20          8.8058     0.5667     0.6143 C.ar         1    LIG   0.0000
  21 C21          9.5156     0.2214    -0.5310 C.ar         1    LIG   0.0000
  22 C22         10.8466     0.6077    -0.6485 C.ar         1    LIG   0.0000
  23 C23         11.4543     1.3318     0.3727 C.ar         1    LIG   0.0000
  24 C24         10.7368     1.6730     1.5146 C.ar         1    LIG   0.0000
  25 C25          9.4052     1.2899     1.6404 C.ar         1    LIG   0.0000
  26 N26          6.5459     1.1028     0.8808 N.2          1    LIG   0.0000
  27 H           -0.6058     2.1259     0.6582 H            1    LIG   0.0000
  28 H            0.6707     2.9457     1.2626 H            1    LIG   0.0000
  29 H            0.6707     2.4713    -0.2999 H            1    LIG   0.0000
  30 H            2.5596     2.9817     0.4030 H            1    LIG   0.0000
  31 H            4.9448     2.9489     0.3872 H            1    LIG   0.0000
  32 H            2.5295    -0.9642     1.6041 H            1    LIG   0.0000
  33 H            5.6243    -2.4057     4.1321 H            1    LIG   0.0000
  34 H            4.3685    -3.9281     5.4929 H            1    LIG   0.0000
  35 H            1.4541    -4.1476     2.5428 H            1    LIG   0.0000
  36 H            2.7173    -2.6256     1.1884 H            1    LIG   0.0000
  37 H            7.7100    -1.7691     0.0949 H            1    LIG   0.0000
  38 H            9.0738    -0.2988    -1.2619 H            1    LIG   0.0000
  39 H           11.3671     0.3651    -1.4672 H            1    LIG   0.0000
  40 H           12.4114     1.6081     0.2854 H            1    LIG   0.0000
  41 H           11.1782     2.1938     2.2452 H            1    LIG   0.0000
  42 H            8.8847     1.5318     2.4593 H            1    LIG   0.0000
@<TRIPOS>BOND
   1        1        2 1
   2        2        3 1
   3        3        4 ar
   4        4        5 ar
   5        5        6 ar
   6        6        7 ar
   7        7        8 ar
   8        8        3 ar
   9        7        9 1
  10        9       10 1
  11       10       11 ar
  12       11       12 ar
  13       12       13 ar
  14       13       14 1
  15       13       15 ar
  16       15       16 ar
  17       16       10 ar
  18        9       17 2
  19       17       18 1
  20       18       19 1
  21       19       20 1
  22       20       21 ar
  23       21       22 ar
  24       22       23 ar
  25       23       24 ar
  26       24       25 ar
  27       25       20 ar
  28       19       26 2
  29       26        6 1
  30        1       27 1
  31        1       28 1
  32        1       29 1
  33        4       30 1
  34        5       31 1
  35        8       32 1
  36       11       33 1
  37       12       34 1
  38       15       35 1
  39       16       36 1
  40       18       37 1
  41       21       38 1
  42       22       39 1
  43       23       40 1
  44       24       41 1
  45       25       42 1

@<TRIPOS>MOLECULE

  42   45
SMALL
USER_CHARGES
@<TRIPOS>ATOM
   1 C1           0.3887     2.2264     0.6277 C.3          1    LIG   0.0000
   2 O2           1.0000     1.0000     1.0000 O.3          1    LIG   0.0000
   3 C3           2.3482     1.0000     1.0000 C.ar         1    LIG   0.0000
   4 C4           3.0658     2.1365     0.6480 C.ar         1    LIG   0.0000
   5 C5           4.4575     2.1173     0.6417 C.ar         1    LIG   0.0000
   6 C6           5.1837     0.9817     0.9849 C.ar         1    LIG   0.0000
   7 C7           4.4721    -0.1838     1.3430 C.ar         1    LIG   0.0000
   8 C8           3.0779    -0.1338     1.3442 C.ar         1    LIG   0.0000
   9 C9           5.1369    -1.4413     1.6810 C.2          1    LIG   0.0000
  10 C10          4.3915    -2.6700     1.4873 C.ar         1    LIG   0.0000
  11 C11          4.6572    -3.7696     2.2971 C.ar         1    LIG   0.0000
  12 C12          3.9477    -4.9525     2.1178 C.ar         1    LIG   0.0000
  13 C13          2.9768    -5.0175     1.1237 C.ar         1    LIG   0.0000
  14 Cl14         2.0650    -6.5278     0.8886 Cl           1    LIG   0.0000
  15 C15          2.7052    -3.9231     0.3087 C.ar         1    LIG   0.0000
  16 C16          3.4199    -2.7443     0.4950 C.ar         1    LIG   0.0000
  17 N17          6.3416    -1.6063     2.1287 N.2          1    LIG   0.0000
  18 N18          7.3109    -0.6757     2.3791 N.pl3        1    LIG   0.0000
  19 C19          7.5073     0.4401     1.5284 C.2          1    LIG   0.0000
  20 C20          8.8805     0.8483     1.3028 C.ar         1    LIG   0.0000
  21 C21          9.1493     1.9281     0.4682 C.ar         1    LIG   0.0000
  22 C22         10.4693     2.3123     0.2569 C.ar         1    LIG   0.0000
  23 C23         11.5041     1.6191     0.8775 C.ar         1    LIG   0.0000
  24 C24         11.2261     0.5405     1.7108 C.ar         1    LIG   0.0000
  25 C25          9.9086     0.1493     1.9270 C.ar         1    LIG   0.0000
  26 N26          6.5919     1.1198     0.9264 N.2          1    LIG   0.0000
  27 H           -0.6058     2.1259     0.6582 H            1    LIG   0.0000
  28 H            0.6707     2.9457     1.2626 H            1    LIG   0.0000
  29 H            0.6707     2.4713    -0.2999 H            1    LIG   0.0000
  30 H            2.5793     2.9735     0.3976 H            1    LIG   0.0000
  31 H            4.9515     2.9470     0.3820 H            1    LIG   0.0000
  32 H            2.5755    -0.9577     1.6067 H            1    LIG   0.0000
  33 H            5.3581    -3.7095     3.0079 H            1    LIG   0.0000
  34 H            4.1333    -5.7467     2.6966 H            1    LIG   0.0000
  35 H            2.0047    -3.9831    -0.4024 H            1    LIG   0.0000
  36 H            3.2352    -1.9506    -0.0845 H            1    LIG   0.0000
  37 H            7.8960    -0.7852     3.1826 H            1    LIG   0.0000
  38 H            8.4017     2.4228     0.0250 H            1    LIG   0.0000
  39 H           10.6748     3.0869    -0.3412 H            1    LIG   0.0000
  40 H           12.4521     1.8976     0.7236 H            1    LIG   0.0000
  41 H           11.9735     0.0461     2.1546 H            1    LIG   0.0000
  42 H            9.7029    -0.6258     2.5245 H            1    LIG   0.0000
@<TRIPOS>BOND
   1        1        2 1
   2        2        3 1
   3        3        4 ar
   4        4        5 ar
   5        5        6 ar
   6        6        7 ar
   7        7        8 ar
   8        8        3 ar
   9        7        9 1
  10        9       10 1
  11       10       11 ar
  12       11       12 ar
  13       12       13 ar
  14       13       14 1
  15       13       15 ar
  16       15       16 ar
  17       16       10 ar
  18        9       17 2
  19       17       18 1
  20       18       19 1
  21       19       20 1
  22       20       21 ar
  23       21       22 ar
  24       22       23 ar
  25       23       24 ar
  26       24       25 ar
  27       25       20 ar
  28       19       26 2
  29       26        6 1
  30        1       27 1
  31        1       28 1
  32        1       29 1
  33        4       30 1
  34        5       31 1
  35        8       32 1
  36       11       33 1
  37       12       34 1
  38       15       35 1
  39       16       36 1
  40       18       37 1
  41       21       38 1
  42       22       39 1
  43       23       40 1
  44       24       41 1
  45       25       42 1

@<TRIPOS>MOLECULE

  42   45
SMALL
USER_CHARGES
@<TRIPOS>ATOM
   1 C1           0.3887     2.2264     0.6277 C.3          1    LIG   0.0000
   2 O2           1.0000     1.0000     1.0000 O.3          1    LIG   0.0000
   3 C3           2.3482     1.0000     1.0000 C.ar         1    LIG   0.0000
   4 C4           3.0658     2.1365     0.6480 C.ar         1    LIG   0.0000
   5 C5           4.4575     2.1173     0.6417 C.ar         1    LIG   0.0000
   6 C6           5.1837     0.9817     0.9849 C.ar         1    LIG   0.0000
   7 C7           4.4721    -0.1838     1.3430 C.ar         1    LIG   0.0000
   8 C8           3.0779    -0.1338     1.3442 C.ar         1    LIG   0.0000
   9 C9           5.1369    -1.4413     1.6810 C.2          1    LIG   0.0000
  10 C10          4.3915    -2.6700     1.4873 C.ar         1    LIG   0.0000
  11 C11          4.6572    -3.7696     2.2971 C.ar         1    LIG   0.0000
  12 C12          3.9477    -4.9525     2.1178 C.ar         1    LIG   0.0000
  13 C13          2.9768    -5.0175     1.1237 C.ar         1    LIG   0.0000
  14 Cl14         2.0650    -6.5278     0.8886 Cl           1    LIG   0.0000
  15 C15          2.7052    -3.9231     0.3087 C.ar         1    LIG   0.0000
  16 C16          3.4199    -2.7443     0.4950 C.ar         1    LIG   0.0000
  17 N17          6.3416    -1.6063     2.1287 N.2          1    LIG   0.0000
  18 N18          7.3109    -0.6757     2.3791 N.pl3        1    LIG   0.0000
  19 C19          7.5073     0.4401     1.5284 C.2          1    LIG   0.0000
  20 C20          8.8805     0.8483     1.3028 C.ar         1    LIG   0.0000
  21 C21          9.6657     1.2471     2.3795 C.ar         1    LIG   0.0000
  22 C22         10.9815     1.6377     2.1539 C.ar         1    LIG   0.0000
  23 C23         11.4994     1.6265     0.8623 C.ar         1    LIG   0.0000
  24 C24         10.7070     1.2259    -0.2085 C.ar         1    LIG   0.0000
  25 C25          9.3897     0.8343     0.0084 C.ar         1    LIG   0.0000
  26 N26          6.5919     1.1198     0.9264 N.2          1    LIG   0.0000
  27 H           -0.6058     2.1259     0.6582 H            1    LIG   0.0000
  28 H            0.6707     2.9457     1.2626 H            1    LIG   0.0000
  29 H            0.6707     2.4713    -0.2999 H            1    LIG   0.0000
  30 H            2.5793     2.9735     0.3976 H            1    LIG   0.0000
  31 H            4.9515     2.9470     0.3820 H            1    LIG   0.0000
  32 H            2.5755    -0.9577     1.6067 H            1    LIG   0.0000
  33 H            5.3581    -3.7095     3.0079 H            1    LIG   0.0000
  34 H            4.1333    -5.7467     2.6966 H            1    LIG   0.0000
  35 H            2.0047    -3.9831    -0.4024 H            1    LIG   0.0000
  36 H            3.2352    -1.9506    -0.0845 H            1    LIG   0.0000
  37 H            7.8960    -0.7852     3.1826 H            1    LIG   0.0000
  38 H            9.2884     1.2530     3.3056 H            1    LIG   0.0000
  39 H           11.5555     1.9266     2.9201 H            1    LIG   0.0000
  40 H           12.4457     1.9078     0.7032 H            1    LIG   0.0000
  41 H           11.0844     1.2193    -1.1346 H            1    LIG   0.0000
  42 H            8.8153     0.5460    -0.7578 H            1    LIG   0.0000
@<TRIPOS>BOND
   1        1        2 1
   2        2        3 1
   3        3        4 ar
   4        4        5 ar
   5        5        6 ar
   6        6        7 ar
   7        7        8 ar
   8        8        3 ar
   9        7        9 1
  10        9       10 1
  11       10       11 ar
  12       11       12 ar
  13       12       13 ar
  14       13       14 1
  15       13       15 ar
  16       15       16 ar
  17       16       10 ar
  18        9       17 2
  19       17       18 1
  20       18       19 1
  21       19       20 1
  22       20       21 ar
  23       21       22 ar
  24       22       23 ar
  25       23       24 ar
  26       24       25 ar
  27       25       20 ar
  28       19       26 2
  29       26        6 1
  30        1       27 1
  31        1       28 1
  32        1       29 1
  33        4       30 1
  34        5       31 1
  35        8       32 1
  36       11       33 1
  37       12       34 1
  38       15       35 1
  39       16       36 1
  40       18       37 1
  41       21       38 1
  42       22       39 1
  43       23       40 1
  44       24       41 1
  45       25       42 1

@<TRIPOS>MOLECULE

  42   45
SMALL
USER_CHARGES
@<TRIPOS>ATOM
   1 C1           0.3887     2.2264     0.6277 C.3          1    LIG   0.0000
   2 O2           1.0000     1.0000     1.0000 O.3          1    LIG   0.0000
   3 C3           2.3482     1.0000     1.0000 C.ar         1    LIG   0.0000
   4 C4           3.0658     2.1365     0.6480 C.ar         1    LIG   0.0000
   5 C5           4.4575     2.1173     0.6417 C.ar         1    LIG   0.0000
   6 C6           5.1837     0.9817     0.9849 C.ar         1    LIG   0.0000
   7 C7           4.4721    -0.1838     1.3430 C.ar         1    LIG   0.0000
   8 C8           3.0779    -0.1338     1.3442 C.ar         1    LIG   0.0000
   9 C9           5.1369    -1.4413     1.6810 C.2          1    LIG   0.0000
  10 C10          4.3915    -2.6700     1.4873 C.ar         1    LIG   0.0000
  11 C11          4.6572    -3.7696     2.2971 C.ar         1    LIG   0.0000
  12 C12          3.9477    -4.9525     2.1178 C.ar         1    LIG   0.0000
  13 C13          2.9768    -5.0175     1.1237 C.ar         1    LIG   0.0000
  14 Cl14         2.0650    -6.5278     0.8886 Cl           1    LIG   0.0000
  15 C15          2.7052    -3.9231     0.3087 C.ar         1    LIG   0.0000
  16 C16          3.4199    -2.7443     0.4950 C.ar         1    LIG   0.0000
  17 N17          6.3416    -1.6063     2.1287 N.2          1    LIG   0.0000
  18 N18          7.3109    -0.6757     2.3791 N.pl3        1    LIG   0.0000
  19 C19          7.5073     0.4401     1.5284 C.2          1    LIG   0.0000
  20 C20          8.8805     0.8483     1.3028 C.ar         1    LIG   0.0000
  21 C21          9.7816    -0.0493     0.7395 C.ar         1    LIG   0.0000
  22 C22         11.0969     0.3504     0.5274 C.ar         1    LIG   0.0000
  23 C23         11.4990     1.6358     0.8771 C.ar         1    LIG   0.0000
  24 C24         10.5911     2.5270     1.4397 C.ar         1    LIG   0.0000
  25 C25          9.2738     2.1350     1.6559 C.ar         1    LIG   0.0000
  26 N26          6.5919     1.1198     0.9264 N.2          1    LIG   0.0000
  27 H           -0.6058     2.1259     0.6582 H            1    LIG   0.0000
  28 H            0.6707     2.9457     1.2626 H            1    LIG   0.0000
  29 H            0.6707     2.4713    -0.2999 H            1    LIG   0.0000
  30 H            2.5793     2.9735     0.3976 H            1    LIG   0.0000
  31 H            4.9515     2.9470     0.3820 H            1    LIG   0.0000
  32 H            2.5755    -0.9577     1.6067 H            1    LIG   0.0000
  33 H            5.3581    -3.7095     3.0079 H            1    LIG   0.0000
  34 H            4.1333    -5.7467     2.6966 H            1    LIG   0.0000
  35 H            2.0047    -3.9831    -0.4024 H            1    LIG   0.0000
  36 H            3.2352    -1.9506    -0.0845 H            1    LIG   0.0000
  37 H            7.8960    -0.7852     3.1826 H            1    LIG   0.0000
  38 H            9.4871    -0.9717     0.4899 H            1    LIG   0.0000
  39 H           11.7537    -0.2862     0.1233 H            1    LIG   0.0000
  40 H           12.4453     1.9203     0.7233 H            1    LIG   0.0000
  41 H           10.8853     3.4497     1.6888 H            1    LIG   0.0000
  42 H            8.6169     2.7712     2.0606 H            1    LIG   0.0000
@<TRIPOS>BOND
   1        1        2 1
   2        2        3 1
   3        3        4 ar
   4        4        5 ar
   5        5        6 ar
   6        6        7 ar
   7        7        8 ar
   8        8        3 ar
   9        7        9 1
  10        9       10 1
  11       10       11 ar
  12       11       12 ar
  13       12       13 ar
  14       13       14 1
  15       13       15 ar
  16       15       16 ar
  17       16       10 ar
  18        9       17 2
  19       17       18 1
  20       18       19 1
  21       19       20 1
  22       20       21 ar
  23       21       22 ar
  24       22       23 ar
  25       23       24 ar
  26       24       25 ar
  27       25       20 ar
  28       19       26 2
  29       26        6 1
  30        1       27 1
  31        1       28 1
  32        1       29 1
  33        4       30 1
  34        5       31 1
  35        8       32 1
  36       11       33 1
  37       12       34 1
  38       15       35 1
  39       16       36 1
  40       18       37 1
  41       21       38 1
  42       22       39 1
  43       23       40 1
  44       24       41 1
  45       25       42 1

@<TRIPOS>MOLECULE

  42   45
SMALL
USER_CHARGES
@<TRIPOS>ATOM
   1 C1           0.3887     2.2264     0.6277 C.3          1    LIG   0.0000
   2 O2           1.0000     1.0000     1.0000 O.3          1    LIG   0.0000
   3 C3           2.3482     1.0000     1.0000 C.ar         1    LIG   0.0000
   4 C4           3.0658     2.1365     0.6480 C.ar         1    LIG   0.0000
   5 C5           4.4575     2.1173     0.6417 C.ar         1    LIG   0.0000
   6 C6           5.1837     0.9817     0.9849 C.ar         1    LIG   0.0000
   7 C7           4.4721    -0.1838     1.3430 C.ar         1    LIG   0.0000
   8 C8           3.0779    -0.1338     1.3442 C.ar         1    LIG   0.0000
   9 C9           5.1369    -1.4413     1.6810 C.2          1    LIG   0.0000
  10 C10          4.3915    -2.6700     1.4873 C.ar         1    LIG   0.0000
  11 C11          4.8716    -3.6328     0.6052 C.ar         1    LIG   0.0000
  12 C12          4.1628    -4.8141     0.4124 C.ar         1    LIG   0.0000
  13 C13          2.9760    -5.0148     1.1099 C.ar         1    LIG   0.0000
  14 Cl14         2.0639    -6.5239     0.8684 Cl           1    LIG   0.0000
  15 C15          2.4882    -4.0571     1.9933 C.ar         1    LIG   0.0000
  16 C16          3.2035    -2.8787     2.1794 C.ar         1    LIG   0.0000
  17 N17          6.3416    -1.6063     2.1287 N.2          1    LIG   0.0000
  18 N18          7.3109    -0.6757     2.3791 N.pl3        1    LIG   0.0000
  19 C19          7.5073     0.4401     1.5284 C.2          1    LIG   0.0000
  20 C20          8.8805     0.8483     1.3028 C.ar         1    LIG   0.0000
  21 C21          9.1493     1.9281     0.4682 C.ar         1    LIG   0.0000
  22 C22         10.4693     2.3123     0.2569 C.ar         1    LIG   0.0000
  23 C23         11.5041     1.6191     0.8775 C.ar         1    LIG   0.0000
  24 C24         11.2261     0.5405     1.7108 C.ar         1    LIG   0.0000
  25 C25          9.9086     0.1493     1.9270 C.ar         1    LIG   0.0000
  26 N26          6.5919     1.1198     0.9264 N.2          1    LIG   0.0000
  27 H           -0.6058     2.1259     0.6582 H            1    LIG   0.0000
  28 H            0.6707     2.9457     1.2626 H            1    LIG   0.0000
  29 H            0.6707     2.4713    -0.2999 H            1    LIG   0.0000
  30 H            2.5793     2.9735     0.3976 H            1    LIG   0.0000
  31 H            4.9515     2.9470     0.3820 H            1    LIG   0.0000
  32 H            2.5755    -0.9577     1.6067 H            1    LIG   0.0000
  33 H            5.7260    -3.4757     0.1098 H            1    LIG   0.0000
  34 H            4.5022    -5.5105    -0.2199 H            1    LIG   0.0000
  35 H            1.6336    -4.2139     2.4884 H            1    LIG   0.0000
  36 H            2.8635    -2.1817     2.8108 H            1    LIG   0.0000
  37 H            7.8960    -0.7852     3.1826 H            1    LIG   0.0000
  38 H            8.4017     2.4228     0.0250 H            1    LIG   0.0000
  39 H           10.6748     3.0869    -0.3412 H            1    LIG   0.0000
  40 H           12.4521     1.8976     0.7236 H            1    LIG   0.0000
  41 H           11.9735     0.0461     2.1546 H            1    LIG   0.0000
  42 H            9.7029    -0.6258     2.5245 H            1    LIG   0.0000
@<TRIPOS>BOND
   1        1        2 1
   2        2        3 1
   3        3        4 ar
   4        4        5 ar
   5        5        6 ar
   6        6        7 ar
   7        7        8 ar
   8        8        3 ar
   9        7        9 1
  10        9       10 1
  11       10       11 ar
  12       11       12 ar
  13       12       13 ar
  14       13       14 1
  15       13       15 ar
  16       15       16 ar
  17       16       10 ar
  18        9       17 2
  19       17       18 1
  20       18       19 1
  21       19       20 1
  22       20       21 ar
  23       21       22 ar
  24       22       23 ar
  25       23       24 ar
  26       24       25 ar
  27       25       20 ar
  28       19       26 2
  29       26        6 1
  30        1       27 1
  31        1       28 1
  32        1       29 1
  33        4       30 1
  34        5       31 1
  35        8       32 1
  36       11       33 1
  37       12       34 1
  38       15       35 1
  39       16       36 1
  40       18       37 1
  41       21       38 1
  42       22       39 1
  43       23       40 1
  44       24       41 1
  45       25       42 1

@<TRIPOS>MOLECULE

  42   45
SMALL
USER_CHARGES
@<TRIPOS>ATOM
   1 C1           0.3887     2.2264     0.6277 C.3          1    LIG   0.0000
   2 O2           1.0000     1.0000     1.0000 O.3          1    LIG   0.0000
   3 C3           2.3482     1.0000     1.0000 C.ar         1    LIG   0.0000
   4 C4           3.0658     2.1365     0.6480 C.ar         1    LIG   0.0000
   5 C5           4.4575     2.1173     0.6417 C.ar         1    LIG   0.0000
   6 C6           5.1837     0.9817     0.9849 C.ar         1    LIG   0.0000
   7 C7           4.4721    -0.1838     1.3430 C.ar         1    LIG   0.0000
   8 C8           3.0779    -0.1338     1.3442 C.ar         1    LIG   0.0000
   9 C9           5.1369    -1.4413     1.6810 C.2          1    LIG   0.0000
  10 C10          4.3915    -2.6700     1.4873 C.ar         1    LIG   0.0000
  11 C11          4.8716    -3.6328     0.6052 C.ar         1    LIG   0.0000
  12 C12          4.1628    -4.8141     0.4124 C.ar         1    LIG   0.0000
  13 C13          2.9760    -5.0148     1.1099 C.ar         1    LIG   0.0000
  14 Cl14         2.0639    -6.5239     0.8684 Cl           1    LIG   0.0000
  15 C15          2.4882    -4.0571     1.9933 C.ar         1    LIG   0.0000
  16 C16          3.2035    -2.8787     2.1794 C.ar         1    LIG   0.0000
  17 N17          6.3416    -1.6063     2.1287 N.2          1    LIG   0.0000
  18 N18          7.3109    -0.6757     2.3791 N.pl3        1    LIG   0.0000
  19 C19          7.5073     0.4401     1.5284 C.2          1    LIG   0.0000
  20 C20          8.8805     0.8483     1.3028 C.ar         1    LIG   0.0000
  21 C21          9.6657     1.2471     2.3795 C.ar         1    LIG   0.0000
  22 C22         10.9815     1.6377     2.1539 C.ar         1    LIG   0.0000
  23 C23         11.4994     1.6265     0.8623 C.ar         1    LIG   0.0000
  24 C24         10.7070     1.2259    -0.2085 C.ar         1    LIG   0.0000
  25 C25          9.3897     0.8343     0.0084 C.ar         1    LIG   0.0000
  26 N26          6.5919     1.1198     0.9264 N.2          1    LIG   0.0000
  27 H           -0.6058     2.1259     0.6582 H            1    LIG   0.0000
  28 H            0.6707     2.9457     1.2626 H            1    LIG   0.0000
  29 H            0.6707     2.4713    -0.2999 H            1    LIG   0.0000
  30 H            2.5793     2.9735     0.3976 H            1    LIG   0.0000
  31 H            4.9515     2.9470     0.3820 H            1    LIG   0.0000
  32 H            2.5755    -0.9577     1.6067 H            1    LIG   0.0000
  33 H            5.7260    -3.4757     0.1098 H            1    LIG   0.0000
  34 H            4.5022    -5.5105    -0.2199 H            1    LIG   0.0000
  35 H            1.6336    -4.2139     2.4884 H            1    LIG   0.0000
  36 H            2.8635    -2.1817     2.8108 H            1    LIG   0.0000
  37 H            7.8960    -0.7852     3.1826 H            1    LIG   0.0000
  38 H            9.2884     1.2530     3.3056 H            1    LIG   0.0000
  39 H           11.5555     1.9266     2.9201 H            1    LIG   0.0000
  40 H           12.4457     1.9078     0.7032 H            1    LIG   0.0000
  41 H           11.0844     1.2193    -1.1346 H            1    LIG   0.0000
  42 H            8.8153     0.5460    -0.7578 H            1    LIG   0.0000
@<TRIPOS>BOND
   1        1        2 1
   2        2        3 1
   3        3        4 ar
   4        4        5 ar
   5        5        6 ar
   6        6        7 ar
   7        7        8 ar
   8        8        3 ar
   9        7        9 1
  10        9       10 1
  11       10       11 ar
  12       11       12 ar
  13       12       13 ar
  14       13       14 1
  15       13       15 ar
  16       15       16 ar
  17       16       10 ar
  18        9       17 2
  19       17       18 1
  20       18       19 1
  21       19       20 1
  22       20       21 ar
  23       21       22 ar
  24       22       23 ar
  25       23       24 ar
  26       24       25 ar
  27       25       20 ar
  28       19       26 2
  29       26        6 1
  30        1       27 1
  31        1       28 1
  32        1       29 1
  33        4       30 1
  34        5       31 1
  35        8       32 1
  36       11       33 1
  37       12       34 1
  38       15       35 1
  39       16       36 1
  40       18       37 1
  41       21       38 1
  42       22       39 1
  43       23       40 1
  44       24       41 1
  45       25       42 1

@<TRIPOS>MOLECULE

  42   45
SMALL
USER_CHARGES
@<TRIPOS>ATOM
   1 C1           0.3887     2.2264     0.6277 C.3          1    LIG   0.0000
   2 O2           1.0000     1.0000     1.0000 O.3          1    LIG   0.0000
   3 C3           2.3482     1.0000     1.0000 C.ar         1    LIG   0.0000
   4 C4           3.0658     2.1365     0.6480 C.ar         1    LIG   0.0000
   5 C5           4.4575     2.1173     0.6417 C.ar         1    LIG   0.0000
   6 C6           5.1837     0.9817     0.9849 C.ar         1    LIG   0.0000
   7 C7           4.4721    -0.1838     1.3430 C.ar         1    LIG   0.0000
   8 C8           3.0779    -0.1338     1.3442 C.ar         1    LIG   0.0000
   9 C9           5.1369    -1.4413     1.6810 C.2          1    LIG   0.0000
  10 C10          4.3915    -2.6700     1.4873 C.ar         1    LIG   0.0000
  11 C11          4.8716    -3.6328     0.6052 C.ar         1    LIG   0.0000
  12 C12          4.1628    -4.8141     0.4124 C.ar         1    LIG   0.0000
  13 C13          2.9760    -5.0148     1.1099 C.ar         1    LIG   0.0000
  14 Cl14         2.0639    -6.5239     0.8684 Cl           1    LIG   0.0000
  15 C15          2.4882    -4.0571     1.9933 C.ar         1    LIG   0.0000
  16 C16          3.2035    -2.8787     2.1794 C.ar         1    LIG   0.0000
  17 N17          6.3416    -1.6063     2.1287 N.2          1    LIG   0.0000
  18 N18          7.3109    -0.6757     2.3791 N.pl3        1    LIG   0.0000
  19 C19          7.5073     0.4401     1.5284 C.2          1    LIG   0.0000
  20 C20          8.8805     0.8483     1.3028 C.ar         1    LIG   0.0000
  21 C21          9.7816    -0.0493     0.7395 C.ar         1    LIG   0.0000
  22 C22         11.0969     0.3504     0.5274 C.ar         1    LIG   0.0000
  23 C23         11.4990     1.6358     0.8771 C.ar         1    LIG   0.0000
  24 C24         10.5911     2.5270     1.4397 C.ar         1    LIG   0.0000
  25 C25          9.2738     2.1350     1.6559 C.ar         1    LIG   0.0000
  26 N26          6.5919     1.1198     0.9264 N.2          1    LIG   0.0000
  27 H           -0.6058     2.1259     0.6582 H            1    LIG   0.0000
  28 H            0.6707     2.9457     1.2626 H            1    LIG   0.0000
  29 H            0.6707     2.4713    -0.2999 H            1    LIG   0.0000
  30 H            2.5793     2.9735     0.3976 H            1    LIG   0.0000
  31 H            4.9515     2.9470     0.3820 H            1    LIG   0.0000
  32 H            2.5755    -0.9577     1.6067 H            1    LIG   0.0000
  33 H            5.7260    -3.4757     0.1098 H            1    LIG   0.0000
  34 H            4.5022    -5.5105    -0.2199 H            1    LIG   0.0000
  35 H            1.6336    -4.2139     2.4884 H            1    LIG   0.0000
  36 H            2.8635    -2.1817     2.8108 H            1    LIG   0.0000
  37 H            7.8960    -0.7852     3.1826 H            1    LIG   0.0000
  38 H            9.4871    -0.9717     0.4899 H            1    LIG   0.0000
  39 H           11.7537    -0.2862     0.1233 H            1    LIG   0.0000
  40 H           12.4453     1.9203     0.7233 H            1    LIG   0.0000
  41 H           10.8853     3.4497     1.6888 H            1    LIG   0.0000
  42 H            8.6169     2.7712     2.0606 H            1    LIG   0.0000
@<TRIPOS>BOND
   1        1        2 1
   2        2        3 1
   3        3        4 ar
   4        4        5 ar
   5        5        6 ar
   6        6        7 ar
   7        7        8 ar
   8        8        3 ar
   9        7        9 1
  10        9       10 1
  11       10       11 ar
  12       11       12 ar
  13       12       13 ar
  14       13       14 1
  15       13       15 ar
  16       15       16 ar
  17       16       10 ar
  18        9       17 2
  19       17       18 1
  20       18       19 1
  21       19       20 1
  22       20       21 ar
  23       21       22 ar
  24       22       23 ar
  25       23       24 ar
  26       24       25 ar
  27       25       20 ar
  28       19       26 2
  29       26        6 1
  30        1       27 1
  31        1       28 1
  32        1       29 1
  33        4       30 1
  34        5       31 1
  35        8       32 1
  36       11       33 1
  37       12       34 1
  38       15       35 1
  39       16       36 1
  40       18       37 1
  41       21       38 1
  42       22       39 1
  43       23       40 1
  44       24       41 1
  45       25       42 1

