@<TRIPOS>MOLECULE
*****
 42 45 0 0 0
SMALL
USER_CHARGES

@<TRIPOS>ATOM
      1 C1          0.3887    2.2264    0.6277 C.3     1  LIG1        0.0000
      2 O2          1.0000    1.0000    1.0000 O.3     1  LIG1        0.0000
      3 C3          2.3466    1.0000    1.0000 C.ar    1  LIG1        0.0000
      4 C4          3.0504    2.1458    0.6485 C.ar    1  LIG1        0.0000
      5 C5          4.4405    2.1233    0.6402 C.ar    1  LIG1        0.0000
      6 C6          5.1403    0.9707    0.9782 C.ar    1  LIG1        0.0000
      7 C7          4.4352   -0.1921    1.3513 C.ar    1  LIG1        0.0000
      8 C8          3.0424   -0.1449    1.3476 C.ar    1  LIG1        0.0000
      9 C9          5.0340   -1.4743    1.7365 C.2     1  LIG1        0.0000
     10 C10         4.2685   -2.3951    2.5544 C.ar    1  LIG1        0.0000
     11 C11         4.4870   -3.7640    2.4357 C.ar    1  LIG1        0.0000
     12 C12         3.7567   -4.6546    3.2157 C.ar    1  LIG1        0.0000
     13 C13         2.8121   -4.1583    4.1083 C.ar    1  LIG1        0.0000
     14 Cl14        1.8741   -5.2920    5.1095 Cl      1  LIG1        0.0000
     15 C15         2.5865   -2.7911    4.2328 C.ar    1  LIG1        0.0000
     16 C16         3.3212   -1.9079    3.4485 C.ar    1  LIG1        0.0000
     17 N17         6.2074   -1.8934    1.4335 N.2     1  LIG1        0.0000
     18 N18         7.1479   -1.2209    0.7141 N.pl3   1  LIG1        0.0000
     19 C19         7.4178    0.1676    0.7459 C.2     1  LIG1        0.0000
     20 C20         8.8058    0.5667    0.6143 C.ar    1  LIG1        0.0000
     21 C21         9.1389    1.9170    0.6380 C.ar    1  LIG1        0.0000
     22 C22        10.4725    2.2909    0.5104 C.ar    1  LIG1        0.0000
     23 C23        11.4570    1.3187    0.3614 C.ar    1  LIG1        0.0000
     24 C24        11.1148   -0.0295    0.3391 C.ar    1  LIG1        0.0000
     25 C25         9.7832   -0.4119    0.4654 C.ar    1  LIG1        0.0000
     26 N26         6.5459    1.1028    0.8808 N.2     1  LIG1        0.0000
     27 H          -0.6058    2.1259    0.6582 H       1  LIG1        0.0000
     28 H           0.6707    2.9457    1.2626 H       1  LIG1        0.0000
     29 H           0.6707    2.4713   -0.2999 H       1  LIG1        0.0000
     30 H           2.5596    2.9817    0.4030 H       1  LIG1        0.0000
     31 H           4.9448    2.9489    0.3872 H       1  LIG1        0.0000
     32 H           2.5295   -0.9642    1.6041 H       1  LIG1        0.0000
     33 H           5.1689   -4.1075    1.7899 H       1  LIG1        0.0000
     34 H           3.9089   -5.6398    3.1357 H       1  LIG1        0.0000
     35 H           1.9044   -2.4475    4.8783 H       1  LIG1        0.0000
     36 H           3.1683   -0.9228    3.5276 H       1  LIG1        0.0000
     37 H           7.7100   -1.7691    0.0949 H       1  LIG1        0.0000
     38 H           8.4273    2.6114    0.7455 H       1  LIG1        0.0000
     39 H          10.7240    3.2586    0.5257 H       1  LIG1        0.0000
     40 H          12.4150    1.5905    0.2699 H       1  LIG1        0.0000
     41 H          11.8263   -0.7240    0.2322 H       1  LIG1        0.0000
     42 H           9.5314   -1.3796    0.4494 H       1  LIG1        0.0000
@<TRIPOS>BOND
     1     1     2    1
     2     2     3    1
     3     3     4   ar
     4     4     5   ar
     5     5     6   ar
     6     6     7   ar
     7     7     8   ar
     8     8     3   ar
     9     7     9    1
    10     9    10    1
    11    10    11   ar
    12    11    12   ar
    13    12    13   ar
    14    13    14    1
    15    13    15   ar
    16    15    16   ar
    17    16    10   ar
    18     9    17    2
    19    17    18    1
    20    18    19    1
    21    19    20    1
    22    20    21   ar
    23    21    22   ar
    24    22    23   ar
    25    23    24   ar
    26    24    25   ar
    27    25    20   ar
    28    19    26    2
    29    26     6    1
    30     1    27    1
    31     1    28    1
    32     1    29    1
    33     4    30    1
    34     5    31    1
    35     8    32    1
    36    11    33    1
    37    12    34    1
    38    15    35    1
    39    16    36    1
    40    18    37    1
    41    21    38    1
    42    22    39    1
    43    23    40    1
    44    24    41    1
    45    25    42    1
