@<TRIPOS>MOLECULE
*****
 42 45 0 0 0
SMALL
USER_CHARGES

@<TRIPOS>ATOM
      1 C1          0.3887    2.2264    0.6277 C.3     1  LIG1        0.0000
      2 O2          1.0000    1.0000    1.0000 O.3     1  LIG1        0.0000
      3 C3          2.3482    1.0000    1.0000 C.ar    1  LIG1        0.0000
      4 C4          3.0658    2.1365    0.6480 C.ar    1  LIG1        0.0000
      5 C5          4.4575    2.1173    0.6417 C.ar    1  LIG1        0.0000
      6 C6          5.1837    0.9817    0.9849 C.ar    1  LIG1        0.0000
      7 C7          4.4721   -0.1838    1.3430 C.ar    1  LIG1        0.0000
      8 C8          3.0779   -0.1338    1.3442 C.ar    1  LIG1        0.0000
      9 C9          5.1369   -1.4413    1.6810 C.2     1  LIG1        0.0000
     10 C10         4.3915   -2.6700    1.4873 C.ar    1  LIG1        0.0000
     11 C11         4.6572   -3.7696    2.2971 C.ar    1  LIG1        0.0000
     12 C12         3.9477   -4.9525    2.1178 C.ar    1  LIG1        0.0000
     13 C13         2.9768   -5.0175    1.1237 C.ar    1  LIG1        0.0000
     14 Cl14        2.0650   -6.5278    0.8886 Cl      1  LIG1        0.0000
     15 C15         2.7052   -3.9231    0.3087 C.ar    1  LIG1        0.0000
     16 C16         3.4199   -2.7443    0.4950 C.ar    1  LIG1        0.0000
     17 N17         6.3416   -1.6063    2.1287 N.2     1  LIG1        0.0000
     18 N18         7.3109   -0.6757    2.3791 N.pl3   1  LIG1        0.0000
     19 C19         7.5073    0.4401    1.5284 C.2     1  LIG1        0.0000
     20 C20         8.8805    0.8483    1.3028 C.ar    1  LIG1        0.0000
     21 C21         9.7816   -0.0493    0.7395 C.ar    1  LIG1        0.0000
     22 C22        11.0969    0.3504    0.5274 C.ar    1  LIG1        0.0000
     23 C23        11.4990    1.6358    0.8771 C.ar    1  LIG1        0.0000
     24 C24        10.5911    2.5270    1.4397 C.ar    1  LIG1        0.0000
     25 C25         9.2738    2.1350    1.6559 C.ar    1  LIG1        0.0000
     26 N26         6.5919    1.1198    0.9264 N.2     1  LIG1        0.0000
     27 H          -0.6058    2.1259    0.6582 H       1  LIG1        0.0000
     28 H           0.6707    2.9457    1.2626 H       1  LIG1        0.0000
     29 H           0.6707    2.4713   -0.2999 H       1  LIG1        0.0000
     30 H           2.5793    2.9735    0.3976 H       1  LIG1        0.0000
     31 H           4.9515    2.9470    0.3820 H       1  LIG1        0.0000
     32 H           2.5755   -0.9577    1.6067 H       1  LIG1        0.0000
     33 H           5.3581   -3.7095    3.0079 H       1  LIG1        0.0000
     34 H           4.1333   -5.7467    2.6966 H       1  LIG1        0.0000
     35 H           2.0047   -3.9831   -0.4024 H       1  LIG1        0.0000
     36 H           3.2352   -1.9506   -0.0845 H       1  LIG1        0.0000
     37 H           7.8960   -0.7852    3.1826 H       1  LIG1        0.0000
     38 H           9.4871   -0.9717    0.4899 H       1  LIG1        0.0000
     39 H          11.7537   -0.2862    0.1233 H       1  LIG1        0.0000
     40 H          12.4453    1.9203    0.7233 H       1  LIG1        0.0000
     41 H          10.8853    3.4497    1.6888 H       1  LIG1        0.0000
     42 H           8.6169    2.7712    2.0606 H       1  LIG1        0.0000
@<TRIPOS>BOND
     1     1     2    1
     2     2     3    1
     3     3     4   ar
     4     4     5   ar
     5     5     6   ar
     6     6     7   ar
     7     7     8   ar
     8     8     3   ar
     9     7     9    1
    10     9    10    1
    11    10    11   ar
    12    11    12   ar
    13    12    13   ar
    14    13    14    1
    15    13    15   ar
    16    15    16   ar
    17    16    10   ar
    18     9    17    2
    19    17    18    1
    20    18    19    1
    21    19    20    1
    22    20    21   ar
    23    21    22   ar
    24    22    23   ar
    25    23    24   ar
    26    24    25   ar
    27    25    20   ar
    28    19    26    2
    29    26     6    1
    30     1    27    1
    31     1    28    1
    32     1    29    1
    33     4    30    1
    34     5    31    1
    35     8    32    1
    36    11    33    1
    37    12    34    1
    38    15    35    1
    39    16    36    1
    40    18    37    1
    41    21    38    1
    42    22    39    1
    43    23    40    1
    44    24    41    1
    45    25    42    1
