@<TRIPOS>MOLECULE

  29   30
SMALL
USER_CHARGES
@<TRIPOS>ATOM
   1 C1           1.1100    -1.4421     1.0152 C.3          1    LIG   0.0000
   2 C2           0.3500    -0.1258     1.0070 C.2          1    LIG   0.0000
   3 C3          -1.1700    -0.1258     1.0070 C.3          1    LIG   0.0000
   4 C4           1.0000     1.0000     1.0000 C.2          1    LIG   0.0000
   5 C5           2.4497     1.0000     1.0000 C.ar         1    LIG   0.0000
   6 C6           3.1336     0.4009     2.0528 C.ar         1    LIG   0.0000
   7 C7           4.5246     0.4036     2.0486 C.ar         1    LIG   0.0000
   8 C8           5.2155     1.0018     1.0002 C.ar         1    LIG   0.0000
   9 C9           6.7348     1.0006     1.0037 C.3          1    LIG   0.0000
  10 C10          7.2406     2.2445     1.7145 C.2          1    LIG   0.0000
  11 N11          7.4958     2.3568     2.9941 N.2          1    LIG   0.0000
  12 N12          7.9145     3.5809     3.2206 N.2          1    LIG   0.0000
  13 N13          7.9192     4.2101     2.1239 N.2          1    LIG   0.0000
  14 N14          7.5118     3.4479     1.1403 N.pl3        1    LIG  -1.0000
  15 C15          4.5234     1.5979    -0.0495 C.ar         1    LIG   0.0000
  16 C16          3.1328     1.5998    -0.0533 C.ar         1    LIG   0.0000
  17 H            0.4602    -2.2022     1.0199 H            1    LIG   0.0000
  18 H            1.6849    -1.5002     0.1990 H            1    LIG   0.0000
  19 H            1.6849    -1.4900     1.8320 H            1    LIG   0.0000
  20 H           -1.5033    -1.0686     1.0129 H            1    LIG   0.0000
  21 H           -1.5033     0.3507     1.8205 H            1    LIG   0.0000
  22 H           -1.5033     0.3405     0.1876 H            1    LIG   0.0000
  23 H            0.5000     1.8660     0.9946 H            1    LIG   0.0000
  24 H            2.6310    -0.0269     2.8040 H            1    LIG   0.0000
  25 H            5.0278    -0.0244     2.7993 H            1    LIG   0.0000
  26 H            7.0703     0.9953     0.0617 H            1    LIG   0.0000
  27 H            7.0663     0.1864     1.4803 H            1    LIG   0.0000
  28 H            5.0261     2.0250    -0.8012 H            1    LIG   0.0000
  29 H            2.6296     2.0272    -0.8044 H            1    LIG   0.0000
@<TRIPOS>BOND
   1        1        2 1
   2        2        3 1
   3        2        4 2
   4        4        5 1
   5        5        6 ar
   6        6        7 ar
   7        7        8 ar
   8        8        9 1
   9        9       10 1
  10       10       11 2
  11       11       12 1
  12       12       13 2
  13       13       14 1
  14       14       10 1
  15        8       15 ar
  16       15       16 ar
  17       16        5 ar
  18        1       17 1
  19        1       18 1
  20        1       19 1
  21        3       20 1
  22        3       21 1
  23        3       22 1
  24        4       23 1
  25        6       24 1
  26        7       25 1
  27        9       26 1
  28        9       27 1
  29       15       28 1
  30       16       29 1

@<TRIPOS>MOLECULE

  29   30
SMALL
USER_CHARGES
@<TRIPOS>ATOM
   1 C1           1.1100    -1.4421     1.0152 C.3          1    LIG   0.0000
   2 C2           0.3500    -0.1258     1.0070 C.2          1    LIG   0.0000
   3 C3          -1.1700    -0.1258     1.0070 C.3          1    LIG   0.0000
   4 C4           1.0000     1.0000     1.0000 C.2          1    LIG   0.0000
   5 C5           2.4497     1.0000     1.0000 C.ar         1    LIG   0.0000
   6 C6           3.1336     0.4009     2.0528 C.ar         1    LIG   0.0000
   7 C7           4.5246     0.4036     2.0486 C.ar         1    LIG   0.0000
   8 C8           5.2155     1.0018     1.0002 C.ar         1    LIG   0.0000
   9 C9           6.7348     1.0006     1.0037 C.3          1    LIG   0.0000
  10 C10          7.2406     2.2445     1.7145 C.2          1    LIG   0.0000
  11 N11          7.5016     3.4021     1.1604 N.2          1    LIG   0.0000
  12 N12          7.9136     4.2209     2.1011 N.2          1    LIG   0.0000
  13 N13          7.9114     3.5977     3.2013 N.2          1    LIG   0.0000
  14 N14          7.5066     2.3625     3.0437 N.pl3        1    LIG  -1.0000
  15 C15          4.5234     1.5979    -0.0495 C.ar         1    LIG   0.0000
  16 C16          3.1328     1.5998    -0.0533 C.ar         1    LIG   0.0000
  17 H            0.4602    -2.2022     1.0199 H            1    LIG   0.0000
  18 H            1.6849    -1.5002     0.1990 H            1    LIG   0.0000
  19 H            1.6849    -1.4900     1.8320 H            1    LIG   0.0000
  20 H           -1.5033    -1.0686     1.0129 H            1    LIG   0.0000
  21 H           -1.5033     0.3507     1.8205 H            1    LIG   0.0000
  22 H           -1.5033     0.3405     0.1876 H            1    LIG   0.0000
  23 H            0.5000     1.8660     0.9946 H            1    LIG   0.0000
  24 H            2.6310    -0.0269     2.8040 H            1    LIG   0.0000
  25 H            5.0278    -0.0244     2.7993 H            1    LIG   0.0000
  26 H            7.0703     0.9953     0.0617 H            1    LIG   0.0000
  27 H            7.0663     0.1864     1.4803 H            1    LIG   0.0000
  28 H            5.0261     2.0250    -0.8012 H            1    LIG   0.0000
  29 H            2.6296     2.0272    -0.8044 H            1    LIG   0.0000
@<TRIPOS>BOND
   1        1        2 1
   2        2        3 1
   3        2        4 2
   4        4        5 1
   5        5        6 ar
   6        6        7 ar
   7        7        8 ar
   8        8        9 1
   9        9       10 1
  10       10       11 2
  11       11       12 1
  12       12       13 2
  13       13       14 1
  14       14       10 1
  15        8       15 ar
  16       15       16 ar
  17       16        5 ar
  18        1       17 1
  19        1       18 1
  20        1       19 1
  21        3       20 1
  22        3       21 1
  23        3       22 1
  24        4       23 1
  25        6       24 1
  26        7       25 1
  27        9       26 1
  28        9       27 1
  29       15       28 1
  30       16       29 1

@<TRIPOS>MOLECULE

  29   30
SMALL
USER_CHARGES
@<TRIPOS>ATOM
   1 C1           1.1100    -1.4421     1.0152 C.3          1    LIG   0.0000
   2 C2           0.3500    -0.1258     1.0070 C.2          1    LIG   0.0000
   3 C3          -1.1700    -0.1258     1.0070 C.3          1    LIG   0.0000
   4 C4           1.0000     1.0000     1.0000 C.2          1    LIG   0.0000
   5 C5           2.4497     1.0000     1.0000 C.ar         1    LIG   0.0000
   6 C6           3.1336     0.4009     2.0528 C.ar         1    LIG   0.0000
   7 C7           4.5246     0.4036     2.0486 C.ar         1    LIG   0.0000
   8 C8           5.2155     1.0018     1.0002 C.ar         1    LIG   0.0000
   9 C9           6.7348     1.0006     1.0037 C.3          1    LIG   0.0000
  10 C10          7.2378     0.2906     2.2492 C.2          1    LIG   0.0000
  11 N11          7.4946    -0.9887     2.3623 N.2          1    LIG   0.0000
  12 N12          7.9099    -1.2145     3.5877 N.2          1    LIG   0.0000
  13 N13          7.9109    -0.1178     4.2170 N.2          1    LIG   0.0000
  14 N14          7.5044     0.8652     3.4534 N.pl3        1    LIG  -1.0000
  15 C15          4.5234     1.5979    -0.0495 C.ar         1    LIG   0.0000
  16 C16          3.1328     1.5998    -0.0533 C.ar         1    LIG   0.0000
  17 H            0.4602    -2.2022     1.0199 H            1    LIG   0.0000
  18 H            1.6849    -1.5002     0.1990 H            1    LIG   0.0000
  19 H            1.6849    -1.4900     1.8320 H            1    LIG   0.0000
  20 H           -1.5033    -1.0686     1.0129 H            1    LIG   0.0000
  21 H           -1.5033     0.3507     1.8205 H            1    LIG   0.0000
  22 H           -1.5033     0.3405     0.1876 H            1    LIG   0.0000
  23 H            0.5000     1.8660     0.9946 H            1    LIG   0.0000
  24 H            2.6310    -0.0269     2.8040 H            1    LIG   0.0000
  25 H            5.0278    -0.0244     2.7993 H            1    LIG   0.0000
  26 H            7.0689     1.9431     0.9995 H            1    LIG   0.0000
  27 H            7.0696     0.5246     0.1905 H            1    LIG   0.0000
  28 H            5.0261     2.0250    -0.8012 H            1    LIG   0.0000
  29 H            2.6296     2.0272    -0.8044 H            1    LIG   0.0000
@<TRIPOS>BOND
   1        1        2 1
   2        2        3 1
   3        2        4 2
   4        4        5 1
   5        5        6 ar
   6        6        7 ar
   7        7        8 ar
   8        8        9 1
   9        9       10 1
  10       10       11 2
  11       11       12 1
  12       12       13 2
  13       13       14 1
  14       14       10 1
  15        8       15 ar
  16       15       16 ar
  17       16        5 ar
  18        1       17 1
  19        1       18 1
  20        1       19 1
  21        3       20 1
  22        3       21 1
  23        3       22 1
  24        4       23 1
  25        6       24 1
  26        7       25 1
  27        9       26 1
  28        9       27 1
  29       15       28 1
  30       16       29 1

@<TRIPOS>MOLECULE

  29   30
SMALL
USER_CHARGES
@<TRIPOS>ATOM
   1 C1           1.1100    -1.4421     1.0152 C.3          1    LIG   0.0000
   2 C2           0.3500    -0.1258     1.0070 C.2          1    LIG   0.0000
   3 C3          -1.1700    -0.1258     1.0070 C.3          1    LIG   0.0000
   4 C4           1.0000     1.0000     1.0000 C.2          1    LIG   0.0000
   5 C5           2.4497     1.0000     1.0000 C.ar         1    LIG   0.0000
   6 C6           3.1336     0.4009     2.0528 C.ar         1    LIG   0.0000
   7 C7           4.5246     0.4036     2.0486 C.ar         1    LIG   0.0000
   8 C8           5.2155     1.0018     1.0002 C.ar         1    LIG   0.0000
   9 C9           6.7348     1.0006     1.0037 C.3          1    LIG   0.0000
  10 C10          7.2378     0.2906     2.2492 C.2          1    LIG   0.0000
  11 N11          7.4944     0.8451     3.4077 N.2          1    LIG   0.0000
  12 N12          7.9053    -0.0950     4.2277 N.2          1    LIG   0.0000
  13 N13          7.9067    -1.1952     3.6045 N.2          1    LIG   0.0000
  14 N14          7.5054    -1.0382     2.3680 N.pl3        1    LIG  -1.0000
  15 C15          4.5234     1.5979    -0.0495 C.ar         1    LIG   0.0000
  16 C16          3.1328     1.5998    -0.0533 C.ar         1    LIG   0.0000
  17 H            0.4602    -2.2022     1.0199 H            1    LIG   0.0000
  18 H            1.6849    -1.5002     0.1990 H            1    LIG   0.0000
  19 H            1.6849    -1.4900     1.8320 H            1    LIG   0.0000
  20 H           -1.5033    -1.0686     1.0129 H            1    LIG   0.0000
  21 H           -1.5033     0.3507     1.8205 H            1    LIG   0.0000
  22 H           -1.5033     0.3405     0.1876 H            1    LIG   0.0000
  23 H            0.5000     1.8660     0.9946 H            1    LIG   0.0000
  24 H            2.6310    -0.0269     2.8040 H            1    LIG   0.0000
  25 H            5.0278    -0.0244     2.7993 H            1    LIG   0.0000
  26 H            7.0689     1.9431     0.9995 H            1    LIG   0.0000
  27 H            7.0696     0.5246     0.1905 H            1    LIG   0.0000
  28 H            5.0261     2.0250    -0.8012 H            1    LIG   0.0000
  29 H            2.6296     2.0272    -0.8044 H            1    LIG   0.0000
@<TRIPOS>BOND
   1        1        2 1
   2        2        3 1
   3        2        4 2
   4        4        5 1
   5        5        6 ar
   6        6        7 ar
   7        7        8 ar
   8        8        9 1
   9        9       10 1
  10       10       11 2
  11       11       12 1
  12       12       13 2
  13       13       14 1
  14       14       10 1
  15        8       15 ar
  16       15       16 ar
  17       16        5 ar
  18        1       17 1
  19        1       18 1
  20        1       19 1
  21        3       20 1
  22        3       21 1
  23        3       22 1
  24        4       23 1
  25        6       24 1
  26        7       25 1
  27        9       26 1
  28        9       27 1
  29       15       28 1
  30       16       29 1

@<TRIPOS>MOLECULE

  29   30
SMALL
USER_CHARGES
@<TRIPOS>ATOM
   1 C1           1.1100    -1.4421     1.0152 C.3          1    LIG   0.0000
   2 C2           0.3500    -0.1258     1.0070 C.2          1    LIG   0.0000
   3 C3          -1.1700    -0.1258     1.0070 C.3          1    LIG   0.0000
   4 C4           1.0000     1.0000     1.0000 C.2          1    LIG   0.0000
   5 C5           2.4497     1.0000     1.0000 C.ar         1    LIG   0.0000
   6 C6           3.1336     0.4009     2.0528 C.ar         1    LIG   0.0000
   7 C7           4.5246     0.4036     2.0486 C.ar         1    LIG   0.0000
   8 C8           5.2155     1.0018     1.0002 C.ar         1    LIG   0.0000
   9 C9           6.7348     1.0006     1.0037 C.3          1    LIG   0.0000
  10 C10          7.2446     1.7098    -0.2394 C.2          1    LIG   0.0000
  11 N11          7.5040     2.9886    -0.3513 N.2          1    LIG   0.0000
  12 N12          7.9253     3.2138    -1.5748 N.2          1    LIG   0.0000
  13 N13          7.9275     2.1171    -2.2040 N.2          1    LIG   0.0000
  14 N14          7.5159     1.1347    -1.4424 N.pl3        1    LIG  -1.0000
  15 C15          4.5234     1.5979    -0.0495 C.ar         1    LIG   0.0000
  16 C16          3.1328     1.5998    -0.0533 C.ar         1    LIG   0.0000
  17 H            0.4602    -2.2022     1.0199 H            1    LIG   0.0000
  18 H            1.6849    -1.5002     0.1990 H            1    LIG   0.0000
  19 H            1.6849    -1.4900     1.8320 H            1    LIG   0.0000
  20 H           -1.5033    -1.0686     1.0129 H            1    LIG   0.0000
  21 H           -1.5033     0.3507     1.8205 H            1    LIG   0.0000
  22 H           -1.5033     0.3405     0.1876 H            1    LIG   0.0000
  23 H            0.5000     1.8660     0.9946 H            1    LIG   0.0000
  24 H            2.6310    -0.0269     2.8040 H            1    LIG   0.0000
  25 H            5.0278    -0.0244     2.7993 H            1    LIG   0.0000
  26 H            7.0673     0.0575     1.0095 H            1    LIG   0.0000
  27 H            7.0666     1.4761     1.8185 H            1    LIG   0.0000
  28 H            5.0261     2.0250    -0.8012 H            1    LIG   0.0000
  29 H            2.6296     2.0272    -0.8044 H            1    LIG   0.0000
@<TRIPOS>BOND
   1        1        2 1
   2        2        3 1
   3        2        4 2
   4        4        5 1
   5        5        6 ar
   6        6        7 ar
   7        7        8 ar
   8        8        9 1
   9        9       10 1
  10       10       11 2
  11       11       12 1
  12       12       13 2
  13       13       14 1
  14       14       10 1
  15        8       15 ar
  16       15       16 ar
  17       16        5 ar
  18        1       17 1
  19        1       18 1
  20        1       19 1
  21        3       20 1
  22        3       21 1
  23        3       22 1
  24        4       23 1
  25        6       24 1
  26        7       25 1
  27        9       26 1
  28        9       27 1
  29       15       28 1
  30       16       29 1

@<TRIPOS>MOLECULE

  29   30
SMALL
USER_CHARGES
@<TRIPOS>ATOM
   1 C1           1.1100    -1.4421     1.0152 C.3          1    LIG   0.0000
   2 C2           0.3500    -0.1258     1.0070 C.2          1    LIG   0.0000
   3 C3          -1.1700    -0.1258     1.0070 C.3          1    LIG   0.0000
   4 C4           1.0000     1.0000     1.0000 C.2          1    LIG   0.0000
   5 C5           2.4497     1.0000     1.0000 C.ar         1    LIG   0.0000
   6 C6           3.1336     0.4009     2.0528 C.ar         1    LIG   0.0000
   7 C7           4.5246     0.4036     2.0486 C.ar         1    LIG   0.0000
   8 C8           5.2155     1.0018     1.0002 C.ar         1    LIG   0.0000
   9 C9           6.7348     1.0006     1.0037 C.3          1    LIG   0.0000
  10 C10          7.2446     1.7098    -0.2394 C.2          1    LIG   0.0000
  11 N11          7.5057     1.1549    -1.3967 N.2          1    LIG   0.0000
  12 N12          7.9218     2.0943    -2.2148 N.2          1    LIG   0.0000
  13 N13          7.9221     3.1945    -1.5916 N.2          1    LIG   0.0000
  14 N14          7.5149     3.0381    -0.3570 N.pl3        1    LIG  -1.0000
  15 C15          4.5234     1.5979    -0.0495 C.ar         1    LIG   0.0000
  16 C16          3.1328     1.5998    -0.0533 C.ar         1    LIG   0.0000
  17 H            0.4602    -2.2022     1.0199 H            1    LIG   0.0000
  18 H            1.6849    -1.5002     0.1990 H            1    LIG   0.0000
  19 H            1.6849    -1.4900     1.8320 H            1    LIG   0.0000
  20 H           -1.5033    -1.0686     1.0129 H            1    LIG   0.0000
  21 H           -1.5033     0.3507     1.8205 H            1    LIG   0.0000
  22 H           -1.5033     0.3405     0.1876 H            1    LIG   0.0000
  23 H            0.5000     1.8660     0.9946 H            1    LIG   0.0000
  24 H            2.6310    -0.0269     2.8040 H            1    LIG   0.0000
  25 H            5.0278    -0.0244     2.7993 H            1    LIG   0.0000
  26 H            7.0673     0.0575     1.0095 H            1    LIG   0.0000
  27 H            7.0666     1.4761     1.8185 H            1    LIG   0.0000
  28 H            5.0261     2.0250    -0.8012 H            1    LIG   0.0000
  29 H            2.6296     2.0272    -0.8044 H            1    LIG   0.0000
@<TRIPOS>BOND
   1        1        2 1
   2        2        3 1
   3        2        4 2
   4        4        5 1
   5        5        6 ar
   6        6        7 ar
   7        7        8 ar
   8        8        9 1
   9        9       10 1
  10       10       11 2
  11       11       12 1
  12       12       13 2
  13       13       14 1
  14       14       10 1
  15        8       15 ar
  16       15       16 ar
  17       16        5 ar
  18        1       17 1
  19        1       18 1
  20        1       19 1
  21        3       20 1
  22        3       21 1
  23        3       22 1
  24        4       23 1
  25        6       24 1
  26        7       25 1
  27        9       26 1
  28        9       27 1
  29       15       28 1
  30       16       29 1

@<TRIPOS>MOLECULE

  29   30
SMALL
USER_CHARGES
@<TRIPOS>ATOM
   1 C1           1.1100    -1.4421     1.0152 C.3          1    LIG   0.0000
   2 C2           0.3500    -0.1258     1.0070 C.2          1    LIG   0.0000
   3 C3          -1.1700    -0.1258     1.0070 C.3          1    LIG   0.0000
   4 C4           1.0000     1.0000     1.0000 C.2          1    LIG   0.0000
   5 C5           2.4497     1.0000     1.0000 C.ar         1    LIG   0.0000
   6 C6           3.1336     0.4009     2.0528 C.ar         1    LIG   0.0000
   7 C7           4.5246     0.4036     2.0486 C.ar         1    LIG   0.0000
   8 C8           5.2155     1.0018     1.0002 C.ar         1    LIG   0.0000
   9 C9           6.7348     1.0006     1.0037 C.3          1    LIG   0.0000
  10 C10          7.2418    -0.2441     0.2953 C.2          1    LIG   0.0000
  11 N11          7.5028    -0.3568    -0.9831 N.2          1    LIG   0.0000
  12 N12          7.9206    -1.5816    -1.2077 N.2          1    LIG   0.0000
  13 N13          7.9192    -2.2109    -0.1110 N.2          1    LIG   0.0000
  14 N14          7.5085    -1.4479     0.8708 N.pl3        1    LIG  -1.0000
  15 C15          4.5234     1.5979    -0.0495 C.ar         1    LIG   0.0000
  16 C16          3.1328     1.5998    -0.0533 C.ar         1    LIG   0.0000
  17 H            0.4602    -2.2022     1.0199 H            1    LIG   0.0000
  18 H            1.6849    -1.5002     0.1990 H            1    LIG   0.0000
  19 H            1.6849    -1.4900     1.8320 H            1    LIG   0.0000
  20 H           -1.5033    -1.0686     1.0129 H            1    LIG   0.0000
  21 H           -1.5033     0.3507     1.8205 H            1    LIG   0.0000
  22 H           -1.5033     0.3405     0.1876 H            1    LIG   0.0000
  23 H            0.5000     1.8660     0.9946 H            1    LIG   0.0000
  24 H            2.6310    -0.0269     2.8040 H            1    LIG   0.0000
  25 H            5.0278    -0.0244     2.7993 H            1    LIG   0.0000
  26 H            7.0659     1.0054     1.9473 H            1    LIG   0.0000
  27 H            7.0698     1.8143     0.5287 H            1    LIG   0.0000
  28 H            5.0261     2.0250    -0.8012 H            1    LIG   0.0000
  29 H            2.6296     2.0272    -0.8044 H            1    LIG   0.0000
@<TRIPOS>BOND
   1        1        2 1
   2        2        3 1
   3        2        4 2
   4        4        5 1
   5        5        6 ar
   6        6        7 ar
   7        7        8 ar
   8        8        9 1
   9        9       10 1
  10       10       11 2
  11       11       12 1
  12       12       13 2
  13       13       14 1
  14       14       10 1
  15        8       15 ar
  16       15       16 ar
  17       16        5 ar
  18        1       17 1
  19        1       18 1
  20        1       19 1
  21        3       20 1
  22        3       21 1
  23        3       22 1
  24        4       23 1
  25        6       24 1
  26        7       25 1
  27        9       26 1
  28        9       27 1
  29       15       28 1
  30       16       29 1

@<TRIPOS>MOLECULE

  29   30
SMALL
USER_CHARGES
@<TRIPOS>ATOM
   1 C1           1.1100    -1.4421     1.0152 C.3          1    LIG   0.0000
   2 C2           0.3500    -0.1258     1.0070 C.2          1    LIG   0.0000
   3 C3          -1.1700    -0.1258     1.0070 C.3          1    LIG   0.0000
   4 C4           1.0000     1.0000     1.0000 C.2          1    LIG   0.0000
   5 C5           2.4497     1.0000     1.0000 C.ar         1    LIG   0.0000
   6 C6           3.1336     0.4009     2.0528 C.ar         1    LIG   0.0000
   7 C7           4.5246     0.4036     2.0486 C.ar         1    LIG   0.0000
   8 C8           5.2155     1.0018     1.0002 C.ar         1    LIG   0.0000
   9 C9           6.7348     1.0006     1.0037 C.3          1    LIG   0.0000
  10 C10          7.2418    -0.2441     0.2953 C.2          1    LIG   0.0000
  11 N11          7.4985    -1.4022     0.8506 N.2          1    LIG   0.0000
  12 N12          7.9135    -2.2216    -0.0882 N.2          1    LIG   0.0000
  13 N13          7.9174    -1.5984    -1.1884 N.2          1    LIG   0.0000
  14 N14          7.5138    -0.3625    -1.0326 N.pl3        1    LIG  -1.0000
  15 C15          4.5234     1.5979    -0.0495 C.ar         1    LIG   0.0000
  16 C16          3.1328     1.5998    -0.0533 C.ar         1    LIG   0.0000
  17 H            0.4602    -2.2022     1.0199 H            1    LIG   0.0000
  18 H            1.6849    -1.5002     0.1990 H            1    LIG   0.0000
  19 H            1.6849    -1.4900     1.8320 H            1    LIG   0.0000
  20 H           -1.5033    -1.0686     1.0129 H            1    LIG   0.0000
  21 H           -1.5033     0.3507     1.8205 H            1    LIG   0.0000
  22 H           -1.5033     0.3405     0.1876 H            1    LIG   0.0000
  23 H            0.5000     1.8660     0.9946 H            1    LIG   0.0000
  24 H            2.6310    -0.0269     2.8040 H            1    LIG   0.0000
  25 H            5.0278    -0.0244     2.7993 H            1    LIG   0.0000
  26 H            7.0659     1.0054     1.9473 H            1    LIG   0.0000
  27 H            7.0698     1.8143     0.5287 H            1    LIG   0.0000
  28 H            5.0261     2.0250    -0.8012 H            1    LIG   0.0000
  29 H            2.6296     2.0272    -0.8044 H            1    LIG   0.0000
@<TRIPOS>BOND
   1        1        2 1
   2        2        3 1
   3        2        4 2
   4        4        5 1
   5        5        6 ar
   6        6        7 ar
   7        7        8 ar
   8        8        9 1
   9        9       10 1
  10       10       11 2
  11       11       12 1
  12       12       13 2
  13       13       14 1
  14       14       10 1
  15        8       15 ar
  16       15       16 ar
  17       16        5 ar
  18        1       17 1
  19        1       18 1
  20        1       19 1
  21        3       20 1
  22        3       21 1
  23        3       22 1
  24        4       23 1
  25        6       24 1
  26        7       25 1
  27        9       26 1
  28        9       27 1
  29       15       28 1
  30       16       29 1

@<TRIPOS>MOLECULE

  29   30
SMALL
USER_CHARGES
@<TRIPOS>ATOM
   1 C1           1.1100    -1.4421     1.0152 C.3          1    LIG   0.0000
   2 C2           0.3500    -0.1258     1.0070 C.2          1    LIG   0.0000
   3 C3          -1.1700    -0.1258     1.0070 C.3          1    LIG   0.0000
   4 C4           1.0000     1.0000     1.0000 C.2          1    LIG   0.0000
   5 C5           2.4497     1.0000     1.0000 C.ar         1    LIG   0.0000
   6 C6           3.1336     0.3878    -0.0453 C.ar         1    LIG   0.0000
   7 C7           4.5246     0.3901    -0.0407 C.ar         1    LIG   0.0000
   8 C8           5.2155     0.9989     1.0014 C.ar         1    LIG   0.0000
   9 C9           6.7348     0.9965     0.9986 C.3          1    LIG   0.0000
  10 C10          7.2406    -0.2410     1.7205 C.2          1    LIG   0.0000
  11 N11          7.4958    -1.4054     1.1779 N.2          1    LIG   0.0000
  12 N12          7.9145    -2.2136     2.1248 N.2          1    LIG   0.0000
  13 N13          7.9192    -1.5784     3.2181 N.2          1    LIG   0.0000
  14 N14          7.5118    -0.3454     3.0498 N.pl3        1    LIG  -1.0000
  15 C15          4.5234     1.6099     2.0426 C.ar         1    LIG   0.0000
  16 C16          3.1328     1.6123     2.0461 C.ar         1    LIG   0.0000
  17 H            0.4602    -2.2022     1.0199 H            1    LIG   0.0000
  18 H            1.6849    -1.5002     0.1990 H            1    LIG   0.0000
  19 H            1.6849    -1.4900     1.8320 H            1    LIG   0.0000
  20 H           -1.5033    -1.0686     1.0129 H            1    LIG   0.0000
  21 H           -1.5033     0.3507     1.8205 H            1    LIG   0.0000
  22 H           -1.5033     0.3405     0.1876 H            1    LIG   0.0000
  23 H            0.5000     1.8660     0.9946 H            1    LIG   0.0000
  24 H            2.6310    -0.0489    -0.7914 H            1    LIG   0.0000
  25 H            5.0278    -0.0460    -0.7868 H            1    LIG   0.0000
  26 H            7.0703     1.8149     1.4651 H            1    LIG   0.0000
  27 H            7.0663     0.9909     0.0552 H            1    LIG   0.0000
  28 H            5.0261     2.0473     2.7883 H            1    LIG   0.0000
  29 H            2.6296     2.0490     2.7918 H            1    LIG   0.0000
@<TRIPOS>BOND
   1        1        2 1
   2        2        3 1
   3        2        4 2
   4        4        5 1
   5        5        6 ar
   6        6        7 ar
   7        7        8 ar
   8        8        9 1
   9        9       10 1
  10       10       11 2
  11       11       12 1
  12       12       13 2
  13       13       14 1
  14       14       10 1
  15        8       15 ar
  16       15       16 ar
  17       16        5 ar
  18        1       17 1
  19        1       18 1
  20        1       19 1
  21        3       20 1
  22        3       21 1
  23        3       22 1
  24        4       23 1
  25        6       24 1
  26        7       25 1
  27        9       26 1
  28        9       27 1
  29       15       28 1
  30       16       29 1

@<TRIPOS>MOLECULE

  29   30
SMALL
USER_CHARGES
@<TRIPOS>ATOM
   1 C1           1.1100    -1.4421     1.0152 C.3          1    LIG   0.0000
   2 C2           0.3500    -0.1258     1.0070 C.2          1    LIG   0.0000
   3 C3          -1.1700    -0.1258     1.0070 C.3          1    LIG   0.0000
   4 C4           1.0000     1.0000     1.0000 C.2          1    LIG   0.0000
   5 C5           2.4497     1.0000     1.0000 C.ar         1    LIG   0.0000
   6 C6           3.1336     0.3878    -0.0453 C.ar         1    LIG   0.0000
   7 C7           4.5246     0.3901    -0.0407 C.ar         1    LIG   0.0000
   8 C8           5.2155     0.9989     1.0014 C.ar         1    LIG   0.0000
   9 C9           6.7348     0.9965     0.9986 C.3          1    LIG   0.0000
  10 C10          7.2406    -0.2410     1.7205 C.2          1    LIG   0.0000
  11 N11          7.5016    -0.3400     3.0001 N.2          1    LIG   0.0000
  12 N12          7.9136    -1.5640     3.2388 N.2          1    LIG   0.0000
  13 N13          7.9114    -2.2053     2.1490 N.2          1    LIG   0.0000
  14 N14          7.5066    -1.4511     1.1581 N.pl3        1    LIG  -1.0000
  15 C15          4.5234     1.6099     2.0426 C.ar         1    LIG   0.0000
  16 C16          3.1328     1.6123     2.0461 C.ar         1    LIG   0.0000
  17 H            0.4602    -2.2022     1.0199 H            1    LIG   0.0000
  18 H            1.6849    -1.5002     0.1990 H            1    LIG   0.0000
  19 H            1.6849    -1.4900     1.8320 H            1    LIG   0.0000
  20 H           -1.5033    -1.0686     1.0129 H            1    LIG   0.0000
  21 H           -1.5033     0.3507     1.8205 H            1    LIG   0.0000
  22 H           -1.5033     0.3405     0.1876 H            1    LIG   0.0000
  23 H            0.5000     1.8660     0.9946 H            1    LIG   0.0000
  24 H            2.6310    -0.0489    -0.7914 H            1    LIG   0.0000
  25 H            5.0278    -0.0460    -0.7868 H            1    LIG   0.0000
  26 H            7.0703     1.8149     1.4651 H            1    LIG   0.0000
  27 H            7.0663     0.9909     0.0552 H            1    LIG   0.0000
  28 H            5.0261     2.0473     2.7883 H            1    LIG   0.0000
  29 H            2.6296     2.0490     2.7918 H            1    LIG   0.0000
@<TRIPOS>BOND
   1        1        2 1
   2        2        3 1
   3        2        4 2
   4        4        5 1
   5        5        6 ar
   6        6        7 ar
   7        7        8 ar
   8        8        9 1
   9        9       10 1
  10       10       11 2
  11       11       12 1
  12       12       13 2
  13       13       14 1
  14       14       10 1
  15        8       15 ar
  16       15       16 ar
  17       16        5 ar
  18        1       17 1
  19        1       18 1
  20        1       19 1
  21        3       20 1
  22        3       21 1
  23        3       22 1
  24        4       23 1
  25        6       24 1
  26        7       25 1
  27        9       26 1
  28        9       27 1
  29       15       28 1
  30       16       29 1

@<TRIPOS>MOLECULE

  29   30
SMALL
USER_CHARGES
@<TRIPOS>ATOM
   1 C1           1.1100    -1.4421     1.0152 C.3          1    LIG   0.0000
   2 C2           0.3500    -0.1258     1.0070 C.2          1    LIG   0.0000
   3 C3          -1.1700    -0.1258     1.0070 C.3          1    LIG   0.0000
   4 C4           1.0000     1.0000     1.0000 C.2          1    LIG   0.0000
   5 C5           2.4497     1.0000     1.0000 C.ar         1    LIG   0.0000
   6 C6           3.1336     0.3878    -0.0453 C.ar         1    LIG   0.0000
   7 C7           4.5246     0.3901    -0.0407 C.ar         1    LIG   0.0000
   8 C8           5.2155     0.9989     1.0014 C.ar         1    LIG   0.0000
   9 C9           6.7348     0.9965     0.9986 C.3          1    LIG   0.0000
  10 C10          7.2446     1.7185     2.2344 C.2          1    LIG   0.0000
  11 N11          7.5040     1.1759     3.3978 N.2          1    LIG   0.0000
  12 N12          7.9253     2.1229     4.2046 N.2          1    LIG   0.0000
  13 N13          7.9275     3.2162     3.5694 N.2          1    LIG   0.0000
  14 N14          7.5159     3.0478     2.3378 N.pl3        1    LIG  -1.0000
  15 C15          4.5234     1.6099     2.0426 C.ar         1    LIG   0.0000
  16 C16          3.1328     1.6123     2.0461 C.ar         1    LIG   0.0000
  17 H            0.4602    -2.2022     1.0199 H            1    LIG   0.0000
  18 H            1.6849    -1.5002     0.1990 H            1    LIG   0.0000
  19 H            1.6849    -1.4900     1.8320 H            1    LIG   0.0000
  20 H           -1.5033    -1.0686     1.0129 H            1    LIG   0.0000
  21 H           -1.5033     0.3507     1.8205 H            1    LIG   0.0000
  22 H           -1.5033     0.3405     0.1876 H            1    LIG   0.0000
  23 H            0.5000     1.8660     0.9946 H            1    LIG   0.0000
  24 H            2.6310    -0.0489    -0.7914 H            1    LIG   0.0000
  25 H            5.0278    -0.0460    -0.7868 H            1    LIG   0.0000
  26 H            7.0673     1.4630     0.1790 H            1    LIG   0.0000
  27 H            7.0666     0.0531     1.0031 H            1    LIG   0.0000
  28 H            5.0261     2.0473     2.7883 H            1    LIG   0.0000
  29 H            2.6296     2.0490     2.7918 H            1    LIG   0.0000
@<TRIPOS>BOND
   1        1        2 1
   2        2        3 1
   3        2        4 2
   4        4        5 1
   5        5        6 ar
   6        6        7 ar
   7        7        8 ar
   8        8        9 1
   9        9       10 1
  10       10       11 2
  11       11       12 1
  12       12       13 2
  13       13       14 1
  14       14       10 1
  15        8       15 ar
  16       15       16 ar
  17       16        5 ar
  18        1       17 1
  19        1       18 1
  20        1       19 1
  21        3       20 1
  22        3       21 1
  23        3       22 1
  24        4       23 1
  25        6       24 1
  26        7       25 1
  27        9       26 1
  28        9       27 1
  29       15       28 1
  30       16       29 1

@<TRIPOS>MOLECULE

  29   30
SMALL
USER_CHARGES
@<TRIPOS>ATOM
   1 C1           1.1100    -1.4421     1.0152 C.3          1    LIG   0.0000
   2 C2           0.3500    -0.1258     1.0070 C.2          1    LIG   0.0000
   3 C3          -1.1700    -0.1258     1.0070 C.3          1    LIG   0.0000
   4 C4           1.0000     1.0000     1.0000 C.2          1    LIG   0.0000
   5 C5           2.4497     1.0000     1.0000 C.ar         1    LIG   0.0000
   6 C6           3.1336     0.3878    -0.0453 C.ar         1    LIG   0.0000
   7 C7           4.5246     0.3901    -0.0407 C.ar         1    LIG   0.0000
   8 C8           5.2155     0.9989     1.0014 C.ar         1    LIG   0.0000
   9 C9           6.7348     0.9965     0.9986 C.3          1    LIG   0.0000
  10 C10          7.2446     1.7185     2.2344 C.2          1    LIG   0.0000
  11 N11          7.5057     2.9981     2.3325 N.2          1    LIG   0.0000
  12 N12          7.9218     3.2369     3.5551 N.2          1    LIG   0.0000
  13 N13          7.9221     2.1471     4.1963 N.2          1    LIG   0.0000
  14 N14          7.5149     1.1561     3.4435 N.pl3        1    LIG  -1.0000
  15 C15          4.5234     1.6099     2.0426 C.ar         1    LIG   0.0000
  16 C16          3.1328     1.6123     2.0461 C.ar         1    LIG   0.0000
  17 H            0.4602    -2.2022     1.0199 H            1    LIG   0.0000
  18 H            1.6849    -1.5002     0.1990 H            1    LIG   0.0000
  19 H            1.6849    -1.4900     1.8320 H            1    LIG   0.0000
  20 H           -1.5033    -1.0686     1.0129 H            1    LIG   0.0000
  21 H           -1.5033     0.3507     1.8205 H            1    LIG   0.0000
  22 H           -1.5033     0.3405     0.1876 H            1    LIG   0.0000
  23 H            0.5000     1.8660     0.9946 H            1    LIG   0.0000
  24 H            2.6310    -0.0489    -0.7914 H            1    LIG   0.0000
  25 H            5.0278    -0.0460    -0.7868 H            1    LIG   0.0000
  26 H            7.0673     1.4630     0.1790 H            1    LIG   0.0000
  27 H            7.0666     0.0531     1.0031 H            1    LIG   0.0000
  28 H            5.0261     2.0473     2.7883 H            1    LIG   0.0000
  29 H            2.6296     2.0490     2.7918 H            1    LIG   0.0000
@<TRIPOS>BOND
   1        1        2 1
   2        2        3 1
   3        2        4 2
   4        4        5 1
   5        5        6 ar
   6        6        7 ar
   7        7        8 ar
   8        8        9 1
   9        9       10 1
  10       10       11 2
  11       11       12 1
  12       12       13 2
  13       13       14 1
  14       14       10 1
  15        8       15 ar
  16       15       16 ar
  17       16        5 ar
  18        1       17 1
  19        1       18 1
  20        1       19 1
  21        3       20 1
  22        3       21 1
  23        3       22 1
  24        4       23 1
  25        6       24 1
  26        7       25 1
  27        9       26 1
  28        9       27 1
  29       15       28 1
  30       16       29 1

@<TRIPOS>MOLECULE

  29   30
SMALL
USER_CHARGES
@<TRIPOS>ATOM
   1 C1           1.1100    -1.4421     1.0152 C.3          1    LIG   0.0000
   2 C2           0.3500    -0.1258     1.0070 C.2          1    LIG   0.0000
   3 C3          -1.1700    -0.1258     1.0070 C.3          1    LIG   0.0000
   4 C4           1.0000     1.0000     1.0000 C.2          1    LIG   0.0000
   5 C5           2.4497     1.0000     1.0000 C.ar         1    LIG   0.0000
   6 C6           3.1336     0.3878    -0.0453 C.ar         1    LIG   0.0000
   7 C7           4.5246     0.3901    -0.0407 C.ar         1    LIG   0.0000
   8 C8           5.2155     0.9989     1.0014 C.ar         1    LIG   0.0000
   9 C9           6.7348     0.9965     0.9986 C.3          1    LIG   0.0000
  10 C10          7.2418     2.2323     0.2749 C.2          1    LIG   0.0000
  11 N11          7.5028     3.3959     0.8165 N.2          1    LIG   0.0000
  12 N12          7.9206     4.2027    -0.1319 N.2          1    LIG   0.0000
  13 N13          7.9192     3.5676    -1.2252 N.2          1    LIG   0.0000
  14 N14          7.5085     2.3359    -1.0554 N.pl3        1    LIG  -1.0000
  15 C15          4.5234     1.6099     2.0426 C.ar         1    LIG   0.0000
  16 C16          3.1328     1.6123     2.0461 C.ar         1    LIG   0.0000
  17 H            0.4602    -2.2022     1.0199 H            1    LIG   0.0000
  18 H            1.6849    -1.5002     0.1990 H            1    LIG   0.0000
  19 H            1.6849    -1.4900     1.8320 H            1    LIG   0.0000
  20 H           -1.5033    -1.0686     1.0129 H            1    LIG   0.0000
  21 H           -1.5033     0.3507     1.8205 H            1    LIG   0.0000
  22 H           -1.5033     0.3405     0.1876 H            1    LIG   0.0000
  23 H            0.5000     1.8660     0.9946 H            1    LIG   0.0000
  24 H            2.6310    -0.0489    -0.7914 H            1    LIG   0.0000
  25 H            5.0278    -0.0460    -0.7868 H            1    LIG   0.0000
  26 H            7.0659     0.1769     0.5310 H            1    LIG   0.0000
  27 H            7.0698     1.0010     1.9408 H            1    LIG   0.0000
  28 H            5.0261     2.0473     2.7883 H            1    LIG   0.0000
  29 H            2.6296     2.0490     2.7918 H            1    LIG   0.0000
@<TRIPOS>BOND
   1        1        2 1
   2        2        3 1
   3        2        4 2
   4        4        5 1
   5        5        6 ar
   6        6        7 ar
   7        7        8 ar
   8        8        9 1
   9        9       10 1
  10       10       11 2
  11       11       12 1
  12       12       13 2
  13       13       14 1
  14       14       10 1
  15        8       15 ar
  16       15       16 ar
  17       16        5 ar
  18        1       17 1
  19        1       18 1
  20        1       19 1
  21        3       20 1
  22        3       21 1
  23        3       22 1
  24        4       23 1
  25        6       24 1
  26        7       25 1
  27        9       26 1
  28        9       27 1
  29       15       28 1
  30       16       29 1

@<TRIPOS>MOLECULE

  29   30
SMALL
USER_CHARGES
@<TRIPOS>ATOM
   1 C1           1.1100    -1.4421     1.0152 C.3          1    LIG   0.0000
   2 C2           0.3500    -0.1258     1.0070 C.2          1    LIG   0.0000
   3 C3          -1.1700    -0.1258     1.0070 C.3          1    LIG   0.0000
   4 C4           1.0000     1.0000     1.0000 C.2          1    LIG   0.0000
   5 C5           2.4497     1.0000     1.0000 C.ar         1    LIG   0.0000
   6 C6           3.1336     0.3878    -0.0453 C.ar         1    LIG   0.0000
   7 C7           4.5246     0.3901    -0.0407 C.ar         1    LIG   0.0000
   8 C8           5.2155     0.9989     1.0014 C.ar         1    LIG   0.0000
   9 C9           6.7348     0.9965     0.9986 C.3          1    LIG   0.0000
  10 C10          7.2418     2.2323     0.2749 C.2          1    LIG   0.0000
  11 N11          7.4985     2.3305    -1.0057 N.2          1    LIG   0.0000
  12 N12          7.9135     3.5532    -1.2459 N.2          1    LIG   0.0000
  13 N13          7.9174     4.1944    -0.1561 N.2          1    LIG   0.0000
  14 N14          7.5138     3.4416     0.8363 N.pl3        1    LIG  -1.0000
  15 C15          4.5234     1.6099     2.0426 C.ar         1    LIG   0.0000
  16 C16          3.1328     1.6123     2.0461 C.ar         1    LIG   0.0000
  17 H            0.4602    -2.2022     1.0199 H            1    LIG   0.0000
  18 H            1.6849    -1.5002     0.1990 H            1    LIG   0.0000
  19 H            1.6849    -1.4900     1.8320 H            1    LIG   0.0000
  20 H           -1.5033    -1.0686     1.0129 H            1    LIG   0.0000
  21 H           -1.5033     0.3507     1.8205 H            1    LIG   0.0000
  22 H           -1.5033     0.3405     0.1876 H            1    LIG   0.0000
  23 H            0.5000     1.8660     0.9946 H            1    LIG   0.0000
  24 H            2.6310    -0.0489    -0.7914 H            1    LIG   0.0000
  25 H            5.0278    -0.0460    -0.7868 H            1    LIG   0.0000
  26 H            7.0659     0.1769     0.5310 H            1    LIG   0.0000
  27 H            7.0698     1.0010     1.9408 H            1    LIG   0.0000
  28 H            5.0261     2.0473     2.7883 H            1    LIG   0.0000
  29 H            2.6296     2.0490     2.7918 H            1    LIG   0.0000
@<TRIPOS>BOND
   1        1        2 1
   2        2        3 1
   3        2        4 2
   4        4        5 1
   5        5        6 ar
   6        6        7 ar
   7        7        8 ar
   8        8        9 1
   9        9       10 1
  10       10       11 2
  11       11       12 1
  12       12       13 2
  13       13       14 1
  14       14       10 1
  15        8       15 ar
  16       15       16 ar
  17       16        5 ar
  18        1       17 1
  19        1       18 1
  20        1       19 1
  21        3       20 1
  22        3       21 1
  23        3       22 1
  24        4       23 1
  25        6       24 1
  26        7       25 1
  27        9       26 1
  28        9       27 1
  29       15       28 1
  30       16       29 1

