@<TRIPOS>MOLECULE
*****
 29 30 0 0 0
SMALL
USER_CHARGES

@<TRIPOS>ATOM
      1 C1          1.1100   -1.4421    1.0152 C.3     1  LIG1        0.0000
      2 C2          0.3500   -0.1258    1.0070 C.2     1  LIG1        0.0000
      3 C3         -1.1700   -0.1258    1.0070 C.3     1  LIG1        0.0000
      4 C4          1.0000    1.0000    1.0000 C.2     1  LIG1        0.0000
      5 C5          2.4497    1.0000    1.0000 C.ar    1  LIG1        0.0000
      6 C6          3.1336    0.3878   -0.0453 C.ar    1  LIG1        0.0000
      7 C7          4.5246    0.3901   -0.0407 C.ar    1  LIG1        0.0000
      8 C8          5.2155    0.9989    1.0014 C.ar    1  LIG1        0.0000
      9 C9          6.7348    0.9965    0.9986 C.3     1  LIG1        0.0000
     10 C10         7.2406   -0.2410    1.7205 C.2     1  LIG1        0.0000
     11 N11         7.5016   -0.3400    3.0001 N.2     1  LIG1        0.0000
     12 N12         7.9136   -1.5640    3.2388 N.2     1  LIG1        0.0000
     13 N13         7.9114   -2.2053    2.1490 N.2     1  LIG1        0.0000
     14 N14         7.5066   -1.4511    1.1581 N.pl3   1  LIG1       -1.0000
     15 C15         4.5234    1.6099    2.0426 C.ar    1  LIG1        0.0000
     16 C16         3.1328    1.6123    2.0461 C.ar    1  LIG1        0.0000
     17 H           0.4602   -2.2022    1.0199 H       1  LIG1        0.0000
     18 H           1.6849   -1.5002    0.1990 H       1  LIG1        0.0000
     19 H           1.6849   -1.4900    1.8320 H       1  LIG1        0.0000
     20 H          -1.5033   -1.0686    1.0129 H       1  LIG1        0.0000
     21 H          -1.5033    0.3507    1.8205 H       1  LIG1        0.0000
     22 H          -1.5033    0.3405    0.1876 H       1  LIG1        0.0000
     23 H           0.5000    1.8660    0.9946 H       1  LIG1        0.0000
     24 H           2.6310   -0.0489   -0.7914 H       1  LIG1        0.0000
     25 H           5.0278   -0.0460   -0.7868 H       1  LIG1        0.0000
     26 H           7.0703    1.8149    1.4651 H       1  LIG1        0.0000
     27 H           7.0663    0.9909    0.0552 H       1  LIG1        0.0000
     28 H           5.0261    2.0473    2.7883 H       1  LIG1        0.0000
     29 H           2.6296    2.0490    2.7918 H       1  LIG1        0.0000
@<TRIPOS>BOND
     1     1     2    1
     2     2     3    1
     3     2     4    2
     4     4     5    1
     5     5     6   ar
     6     6     7   ar
     7     7     8   ar
     8     8     9    1
     9     9    10    1
    10    10    11    2
    11    11    12    1
    12    12    13    2
    13    13    14    1
    14    14    10    1
    15     8    15   ar
    16    15    16   ar
    17    16     5   ar
    18     1    17    1
    19     1    18    1
    20     1    19    1
    21     3    20    1
    22     3    21    1
    23     3    22    1
    24     4    23    1
    25     6    24    1
    26     7    25    1
    27     9    26    1
    28     9    27    1
    29    15    28    1
    30    16    29    1
