@<TRIPOS>MOLECULE

  64   69
SMALL
USER_CHARGES
@<TRIPOS>ATOM
   1 C1           3.5084    -0.3852    -2.1910 C.3          1    LIG   0.0000
   2 C2           4.2358     0.2834    -1.0356 C.ar         1    LIG   0.0000
   3 C3           5.6259     0.3284    -1.0217 C.ar         1    LIG   0.0000
   4 C4           6.2916     0.9400     0.0361 C.ar         1    LIG   0.0000
   5 C5           5.5669     1.5071     1.0792 C.ar         1    LIG   0.0000
   6 C6           4.1766     1.4621     1.0653 C.ar         1    LIG   0.0000
   7 C7           3.5109     0.8509     0.0077 C.ar         1    LIG   0.0000
   8 N8           2.1113     0.8062    -0.0066 N.pl3        1    LIG   0.0000
   9 N9           1.2840     1.8342    -0.0025 N.2          1    LIG   0.0000
  10 C10          0.0364     1.4291    -0.0215 C.2          1    LIG   0.0000
  11 C11         -1.1421     2.2737    -0.0127 C.2          1    LIG   0.0000
  12 O12         -1.0245     3.4676     0.0142 O.2          1    LIG   0.0000
  13 C13         -2.5266     1.6468    -0.0377 C.3          1    LIG   0.0000
  14 C14         -2.7025     0.7583     1.1829 C.1          1    LIG   0.0000
  15 N15         -2.8345     0.0918     2.0984 N.1          1    LIG   0.0000
  16 C16         -3.5796     2.7431    -0.0225 C.2          1    LIG   0.0000
  17 N17         -3.7412     3.6482     0.9139 N.2          1    LIG   0.0000
  18 N18         -4.7476     4.4322     0.5967 N.2          1    LIG   0.0000
  19 C19         -5.2476     4.0436    -0.5493 C.2          1    LIG   0.0000
  20 N20         -6.3315     4.6281    -1.2160 N.pl3        1    LIG   0.0000
  21 C21         -6.7729     4.0690    -2.5029 C.3          1    LIG   0.0000
  22 C22         -7.3158     5.1593    -3.4142 C.3          1    LIG   0.0000
  23 O23         -8.2066     6.0201    -2.7165 O.3          1    LIG   0.0000
  24 C24         -7.5183     6.7384    -1.7007 C.3          1    LIG   0.0000
  25 C25         -6.9887     5.8039    -0.6237 C.3          1    LIG   0.0000
  26 N26         -4.5285     2.9683    -0.9696 N.pl3        1    LIG   0.0000
  27 C27         -4.7312     2.2426    -2.1499 C.ar         1    LIG   0.0000
  28 C28         -5.5891     1.1477    -2.1460 C.ar         1    LIG   0.0000
  29 C29         -5.7840     0.4323    -3.3228 C.ar         1    LIG   0.0000
  30 C30         -5.1246     0.8142    -4.4872 C.ar         1    LIG   0.0000
  31 C31         -4.2686     1.9107    -4.4820 C.ar         1    LIG   0.0000
  32 C32         -4.0676     2.6314    -3.3090 C.ar         1    LIG   0.0000
  33 C33          0.0761     0.0096     0.0018 C.2          1    LIG   0.0000
  34 C34          1.3749    -0.3403    -0.0012 C.2          1    LIG   0.0000
  35 C35          1.5154    -1.8490    -0.0030 C.3          1    LIG   0.0000
  36 C36          0.1703    -2.3503    -0.4743 C.3          1    LIG   0.0000
  37 C37         -0.7459    -1.2623     0.0357 C.3          1    LIG   0.0000
  38 H           -2.6290     1.0978    -0.8672 H            1    LIG   0.0000
  39 H            4.1765    -0.7364    -2.8470 H            1    LIG   0.0000
  40 H            2.9537    -1.1411    -1.8430 H            1    LIG   0.0000
  41 H            2.9164     0.2820    -2.6430 H            1    LIG   0.0000
  42 H            6.1469    -0.0788    -1.7719 H            1    LIG   0.0000
  43 H            7.2911     0.9718     0.0464 H            1    LIG   0.0000
  44 H            6.0454     1.9473     1.8390 H            1    LIG   0.0000
  45 H            3.6557     1.8691     1.8156 H            1    LIG   0.0000
  46 H           -7.4917     3.3939    -2.3367 H            1    LIG   0.0000
  47 H           -5.9963     3.6256    -2.9503 H            1    LIG   0.0000
  48 H           -6.5516     5.6987    -3.7677 H            1    LIG   0.0000
  49 H           -7.8041     4.7337    -4.1761 H            1    LIG   0.0000
  50 H           -8.1471     7.3939    -1.2824 H            1    LIG   0.0000
  51 H           -6.7503     7.2291    -2.1123 H            1    LIG   0.0000
  52 H           -6.3270     6.2979    -0.0597 H            1    LIG   0.0000
  53 H           -7.7510     5.4986    -0.0530 H            1    LIG   0.0000
  54 H           -6.0606     0.8779    -1.3064 H            1    LIG   0.0000
  55 H           -6.3982    -0.3568    -3.3321 H            1    LIG   0.0000
  56 H           -5.2667     0.2978    -5.3317 H            1    LIG   0.0000
  57 H           -3.7976     2.1810    -5.3217 H            1    LIG   0.0000
  58 H           -3.4528     3.4201    -3.2993 H            1    LIG   0.0000
  59 H            1.7167    -2.1868     0.9165 H            1    LIG   0.0000
  60 H            2.2397    -2.1363    -0.6297 H            1    LIG   0.0000
  61 H           -0.0527    -3.2368    -0.0687 H            1    LIG   0.0000
  62 H            0.1349    -2.4215    -1.4711 H            1    LIG   0.0000
  63 H           -1.5480    -1.1757    -0.5552 H            1    LIG   0.0000
  64 H           -1.0403    -1.4631     0.9700 H            1    LIG   0.0000
@<TRIPOS>BOND
   1        1        2 1
   2        2        3 ar
   3        3        4 ar
   4        4        5 ar
   5        5        6 ar
   6        6        7 ar
   7        7        2 ar
   8        7        8 1
   9        8        9 1
  10        9       10 2
  11       10       11 1
  12       11       12 2
  13       11       13 1
  14       13       14 1
  15       14       15 3
  16       13       16 1
  17       16       17 2
  18       17       18 1
  19       18       19 2
  20       19       20 1
  21       20       21 1
  22       21       22 1
  23       22       23 1
  24       23       24 1
  25       24       25 1
  26       25       20 1
  27       19       26 1
  28       26       16 1
  29       26       27 1
  30       27       28 ar
  31       28       29 ar
  32       29       30 ar
  33       30       31 ar
  34       31       32 ar
  35       32       27 ar
  36       10       33 1
  37       33       34 2
  38       34        8 1
  39       34       35 1
  40       35       36 1
  41       36       37 1
  42       37       33 1
  43       13       38 1
  44        1       39 1
  45        1       40 1
  46        1       41 1
  47        3       42 1
  48        4       43 1
  49        5       44 1
  50        6       45 1
  51       21       46 1
  52       21       47 1
  53       22       48 1
  54       22       49 1
  55       24       50 1
  56       24       51 1
  57       25       52 1
  58       25       53 1
  59       28       54 1
  60       29       55 1
  61       30       56 1
  62       31       57 1
  63       32       58 1
  64       35       59 1
  65       35       60 1
  66       36       61 1
  67       36       62 1
  68       37       63 1
  69       37       64 1

@<TRIPOS>MOLECULE

  64   69
SMALL
USER_CHARGES
@<TRIPOS>ATOM
   1 C1           3.4653    -0.4372     2.1759 C.3          1    LIG   0.0000
   2 C2           4.2152     0.2585     1.0512 C.ar         1    LIG   0.0000
   3 C3           5.6054     0.3022     1.0651 C.ar         1    LIG   0.0000
   4 C4           6.2917     0.9394     0.0358 C.ar         1    LIG   0.0000
   5 C5           5.5875     1.5318    -1.0073 C.ar         1    LIG   0.0000
   6 C6           4.1972     1.4880    -1.0211 C.ar         1    LIG   0.0000
   7 C7           3.5109     0.8509     0.0077 C.ar         1    LIG   0.0000
   8 N8           2.1113     0.8062    -0.0066 N.pl3        1    LIG   0.0000
   9 N9           1.2840     1.8342    -0.0025 N.2          1    LIG   0.0000
  10 C10          0.0364     1.4291    -0.0215 C.2          1    LIG   0.0000
  11 C11         -1.1421     2.2737    -0.0127 C.2          1    LIG   0.0000
  12 O12         -1.0245     3.4676     0.0142 O.2          1    LIG   0.0000
  13 C13         -2.5266     1.6468    -0.0377 C.3          1    LIG   0.0000
  14 C14         -2.7025     0.7583     1.1829 C.1          1    LIG   0.0000
  15 N15         -2.8345     0.0918     2.0984 N.1          1    LIG   0.0000
  16 C16         -3.5796     2.7431    -0.0225 C.2          1    LIG   0.0000
  17 N17         -3.7412     3.6482     0.9139 N.2          1    LIG   0.0000
  18 N18         -4.7476     4.4322     0.5967 N.2          1    LIG   0.0000
  19 C19         -5.2476     4.0436    -0.5493 C.2          1    LIG   0.0000
  20 N20         -6.3315     4.6281    -1.2160 N.pl3        1    LIG   0.0000
  21 C21         -6.7729     4.0690    -2.5029 C.3          1    LIG   0.0000
  22 C22         -7.3158     5.1593    -3.4142 C.3          1    LIG   0.0000
  23 O23         -8.2066     6.0201    -2.7165 O.3          1    LIG   0.0000
  24 C24         -7.5183     6.7384    -1.7007 C.3          1    LIG   0.0000
  25 C25         -6.9887     5.8039    -0.6237 C.3          1    LIG   0.0000
  26 N26         -4.5285     2.9683    -0.9696 N.pl3        1    LIG   0.0000
  27 C27         -4.7312     2.2426    -2.1499 C.ar         1    LIG   0.0000
  28 C28         -5.5891     1.1477    -2.1460 C.ar         1    LIG   0.0000
  29 C29         -5.7840     0.4323    -3.3228 C.ar         1    LIG   0.0000
  30 C30         -5.1246     0.8142    -4.4872 C.ar         1    LIG   0.0000
  31 C31         -4.2686     1.9107    -4.4820 C.ar         1    LIG   0.0000
  32 C32         -4.0676     2.6314    -3.3090 C.ar         1    LIG   0.0000
  33 C33          0.0761     0.0096     0.0018 C.2          1    LIG   0.0000
  34 C34          1.3749    -0.3403    -0.0012 C.2          1    LIG   0.0000
  35 C35          1.5154    -1.8490    -0.0030 C.3          1    LIG   0.0000
  36 C36          0.1703    -2.3503    -0.4743 C.3          1    LIG   0.0000
  37 C37         -0.7459    -1.2623     0.0357 C.3          1    LIG   0.0000
  38 H           -2.6290     1.0978    -0.8672 H            1    LIG   0.0000
  39 H            4.1205    -0.8042     2.8363 H            1    LIG   0.0000
  40 H            2.8646     0.2193     2.6320 H            1    LIG   0.0000
  41 H            2.9177    -1.1843     1.7992 H            1    LIG   0.0000
  42 H            6.1116    -0.1242     1.8146 H            1    LIG   0.0000
  43 H            7.2911     0.9714     0.0460 H            1    LIG   0.0000
  44 H            6.0807     1.9891    -1.7473 H            1    LIG   0.0000
  45 H            3.6909     1.9146    -1.7706 H            1    LIG   0.0000
  46 H           -7.4917     3.3939    -2.3367 H            1    LIG   0.0000
  47 H           -5.9963     3.6256    -2.9503 H            1    LIG   0.0000
  48 H           -6.5516     5.6987    -3.7677 H            1    LIG   0.0000
  49 H           -7.8041     4.7337    -4.1761 H            1    LIG   0.0000
  50 H           -8.1471     7.3939    -1.2824 H            1    LIG   0.0000
  51 H           -6.7503     7.2291    -2.1123 H            1    LIG   0.0000
  52 H           -6.3270     6.2979    -0.0597 H            1    LIG   0.0000
  53 H           -7.7510     5.4986    -0.0530 H            1    LIG   0.0000
  54 H           -6.0606     0.8779    -1.3064 H            1    LIG   0.0000
  55 H           -6.3982    -0.3568    -3.3321 H            1    LIG   0.0000
  56 H           -5.2667     0.2978    -5.3317 H            1    LIG   0.0000
  57 H           -3.7976     2.1810    -5.3217 H            1    LIG   0.0000
  58 H           -3.4528     3.4201    -3.2993 H            1    LIG   0.0000
  59 H            1.7167    -2.1868     0.9165 H            1    LIG   0.0000
  60 H            2.2397    -2.1363    -0.6297 H            1    LIG   0.0000
  61 H           -0.0527    -3.2368    -0.0687 H            1    LIG   0.0000
  62 H            0.1349    -2.4215    -1.4711 H            1    LIG   0.0000
  63 H           -1.5480    -1.1757    -0.5552 H            1    LIG   0.0000
  64 H           -1.0403    -1.4631     0.9700 H            1    LIG   0.0000
@<TRIPOS>BOND
   1        1        2 1
   2        2        3 ar
   3        3        4 ar
   4        4        5 ar
   5        5        6 ar
   6        6        7 ar
   7        7        2 ar
   8        7        8 1
   9        8        9 1
  10        9       10 2
  11       10       11 1
  12       11       12 2
  13       11       13 1
  14       13       14 1
  15       14       15 3
  16       13       16 1
  17       16       17 2
  18       17       18 1
  19       18       19 2
  20       19       20 1
  21       20       21 1
  22       21       22 1
  23       22       23 1
  24       23       24 1
  25       24       25 1
  26       25       20 1
  27       19       26 1
  28       26       16 1
  29       26       27 1
  30       27       28 ar
  31       28       29 ar
  32       29       30 ar
  33       30       31 ar
  34       31       32 ar
  35       32       27 ar
  36       10       33 1
  37       33       34 2
  38       34        8 1
  39       34       35 1
  40       35       36 1
  41       36       37 1
  42       37       33 1
  43       13       38 1
  44        1       39 1
  45        1       40 1
  46        1       41 1
  47        3       42 1
  48        4       43 1
  49        5       44 1
  50        6       45 1
  51       21       46 1
  52       21       47 1
  53       22       48 1
  54       22       49 1
  55       24       50 1
  56       24       51 1
  57       25       52 1
  58       25       53 1
  59       28       54 1
  60       29       55 1
  61       30       56 1
  62       31       57 1
  63       32       58 1
  64       35       59 1
  65       35       60 1
  66       36       61 1
  67       36       62 1
  68       37       63 1
  69       37       64 1

@<TRIPOS>MOLECULE

  64   69
SMALL
USER_CHARGES
@<TRIPOS>ATOM
   1 C1           3.5084    -0.3852    -2.1910 C.3          1    LIG   0.0000
   2 C2           4.2358     0.2834    -1.0356 C.ar         1    LIG   0.0000
   3 C3           5.6259     0.3284    -1.0217 C.ar         1    LIG   0.0000
   4 C4           6.2916     0.9400     0.0361 C.ar         1    LIG   0.0000
   5 C5           5.5669     1.5071     1.0792 C.ar         1    LIG   0.0000
   6 C6           4.1766     1.4621     1.0653 C.ar         1    LIG   0.0000
   7 C7           3.5109     0.8509     0.0077 C.ar         1    LIG   0.0000
   8 N8           2.1113     0.8062    -0.0066 N.pl3        1    LIG   0.0000
   9 N9           1.2840     1.8342    -0.0025 N.2          1    LIG   0.0000
  10 C10          0.0364     1.4291    -0.0215 C.2          1    LIG   0.0000
  11 C11         -1.1421     2.2737    -0.0127 C.2          1    LIG   0.0000
  12 O12         -2.2351     1.7788    -0.0325 O.2          1    LIG   0.0000
  13 C13         -0.9931     3.7860     0.0214 C.3          1    LIG   0.0000
  14 C14          0.1415     4.1622     0.9603 C.1          1    LIG   0.0000
  15 N15          0.9925     4.4444     1.6645 N.1          1    LIG   0.0000
  16 C16         -0.6842     4.2964    -1.3768 C.2          1    LIG   0.0000
  17 N17          0.3541     3.9679    -2.1089 N.2          1    LIG   0.0000
  18 N18          0.2971     4.6012    -3.2595 N.2          1    LIG   0.0000
  19 C19         -0.7797     5.3456    -3.2850 C.2          1    LIG   0.0000
  20 N20         -1.1863     6.1705    -4.3410 N.pl3        1    LIG   0.0000
  21 C21         -2.4287     6.9471    -4.2120 C.3          1    LIG   0.0000
  22 C22         -3.1159     7.1054    -5.5598 C.3          1    LIG   0.0000
  23 O23         -2.1906     7.4841    -6.5705 O.3          1    LIG   0.0000
  24 C24         -1.2397     6.4508    -6.7936 C.3          1    LIG   0.0000
  25 C25         -0.3719     6.2224    -5.5655 C.3          1    LIG   0.0000
  26 N26         -1.4259     5.1768    -2.1000 N.pl3        1    LIG   0.0000
  27 C27         -2.6221     5.7918    -1.7107 C.ar         1    LIG   0.0000
  28 C28         -2.5835     7.0122    -1.0442 C.ar         1    LIG   0.0000
  29 C29         -3.7766     7.6155    -0.6605 C.ar         1    LIG   0.0000
  30 C30         -4.9914     6.9988    -0.9441 C.ar         1    LIG   0.0000
  31 C31         -5.0205     5.7785    -1.6113 C.ar         1    LIG   0.0000
  32 C32         -3.8317     5.1679    -1.9980 C.ar         1    LIG   0.0000
  33 C33          0.0761     0.0096     0.0018 C.2          1    LIG   0.0000
  34 C34          1.3749    -0.3403    -0.0012 C.2          1    LIG   0.0000
  35 C35          1.5154    -1.8490    -0.0030 C.3          1    LIG   0.0000
  36 C36          0.1703    -2.3503    -0.4743 C.3          1    LIG   0.0000
  37 C37         -0.7459    -1.2623     0.0357 C.3          1    LIG   0.0000
  38 H           -1.8447     4.1976     0.3459 H            1    LIG   0.0000
  39 H            4.1765    -0.7364    -2.8470 H            1    LIG   0.0000
  40 H            2.9537    -1.1411    -1.8430 H            1    LIG   0.0000
  41 H            2.9164     0.2820    -2.6430 H            1    LIG   0.0000
  42 H            6.1469    -0.0788    -1.7719 H            1    LIG   0.0000
  43 H            7.2911     0.9718     0.0464 H            1    LIG   0.0000
  44 H            6.0454     1.9473     1.8390 H            1    LIG   0.0000
  45 H            3.6557     1.8691     1.8156 H            1    LIG   0.0000
  46 H           -2.2118     7.8527    -3.8473 H            1    LIG   0.0000
  47 H           -3.0463     6.4740    -3.5837 H            1    LIG   0.0000
  48 H           -3.5381     6.2353    -5.8143 H            1    LIG   0.0000
  49 H           -3.8223     7.8093    -5.4846 H            1    LIG   0.0000
  50 H           -0.6544     6.7076    -7.5627 H            1    LIG   0.0000
  51 H           -1.7245     5.6039    -7.0118 H            1    LIG   0.0000
  52 H            0.1178     5.3566    -5.6685 H            1    LIG   0.0000
  53 H            0.2868     6.9707    -5.4877 H            1    LIG   0.0000
  54 H           -1.7076     7.4509    -0.8432 H            1    LIG   0.0000
  55 H           -3.7613     8.4927    -0.1807 H            1    LIG   0.0000
  56 H           -5.8475     7.4350    -0.6670 H            1    LIG   0.0000
  57 H           -5.8963     5.3399    -1.8130 H            1    LIG   0.0000
  58 H           -3.8467     4.2903    -2.4772 H            1    LIG   0.0000
  59 H            1.7167    -2.1868     0.9165 H            1    LIG   0.0000
  60 H            2.2397    -2.1363    -0.6297 H            1    LIG   0.0000
  61 H           -0.0527    -3.2368    -0.0687 H            1    LIG   0.0000
  62 H            0.1349    -2.4215    -1.4711 H            1    LIG   0.0000
  63 H           -1.5480    -1.1757    -0.5552 H            1    LIG   0.0000
  64 H           -1.0403    -1.4631     0.9700 H            1    LIG   0.0000
@<TRIPOS>BOND
   1        1        2 1
   2        2        3 ar
   3        3        4 ar
   4        4        5 ar
   5        5        6 ar
   6        6        7 ar
   7        7        2 ar
   8        7        8 1
   9        8        9 1
  10        9       10 2
  11       10       11 1
  12       11       12 2
  13       11       13 1
  14       13       14 1
  15       14       15 3
  16       13       16 1
  17       16       17 2
  18       17       18 1
  19       18       19 2
  20       19       20 1
  21       20       21 1
  22       21       22 1
  23       22       23 1
  24       23       24 1
  25       24       25 1
  26       25       20 1
  27       19       26 1
  28       26       16 1
  29       26       27 1
  30       27       28 ar
  31       28       29 ar
  32       29       30 ar
  33       30       31 ar
  34       31       32 ar
  35       32       27 ar
  36       10       33 1
  37       33       34 2
  38       34        8 1
  39       34       35 1
  40       35       36 1
  41       36       37 1
  42       37       33 1
  43       13       38 1
  44        1       39 1
  45        1       40 1
  46        1       41 1
  47        3       42 1
  48        4       43 1
  49        5       44 1
  50        6       45 1
  51       21       46 1
  52       21       47 1
  53       22       48 1
  54       22       49 1
  55       24       50 1
  56       24       51 1
  57       25       52 1
  58       25       53 1
  59       28       54 1
  60       29       55 1
  61       30       56 1
  62       31       57 1
  63       32       58 1
  64       35       59 1
  65       35       60 1
  66       36       61 1
  67       36       62 1
  68       37       63 1
  69       37       64 1

@<TRIPOS>MOLECULE

  64   69
SMALL
USER_CHARGES
@<TRIPOS>ATOM
   1 C1           3.4653    -0.4372     2.1759 C.3          1    LIG   0.0000
   2 C2           4.2152     0.2585     1.0512 C.ar         1    LIG   0.0000
   3 C3           5.6054     0.3022     1.0651 C.ar         1    LIG   0.0000
   4 C4           6.2917     0.9394     0.0358 C.ar         1    LIG   0.0000
   5 C5           5.5875     1.5318    -1.0073 C.ar         1    LIG   0.0000
   6 C6           4.1972     1.4880    -1.0211 C.ar         1    LIG   0.0000
   7 C7           3.5109     0.8509     0.0077 C.ar         1    LIG   0.0000
   8 N8           2.1113     0.8062    -0.0066 N.pl3        1    LIG   0.0000
   9 N9           1.2840     1.8342    -0.0025 N.2          1    LIG   0.0000
  10 C10          0.0364     1.4291    -0.0215 C.2          1    LIG   0.0000
  11 C11         -1.1421     2.2737    -0.0127 C.2          1    LIG   0.0000
  12 O12         -2.2351     1.7788    -0.0325 O.2          1    LIG   0.0000
  13 C13         -0.9931     3.7860     0.0214 C.3          1    LIG   0.0000
  14 C14          0.1415     4.1622     0.9603 C.1          1    LIG   0.0000
  15 N15          0.9925     4.4444     1.6645 N.1          1    LIG   0.0000
  16 C16         -0.6842     4.2964    -1.3768 C.2          1    LIG   0.0000
  17 N17          0.3541     3.9679    -2.1089 N.2          1    LIG   0.0000
  18 N18          0.2971     4.6012    -3.2595 N.2          1    LIG   0.0000
  19 C19         -0.7797     5.3456    -3.2850 C.2          1    LIG   0.0000
  20 N20         -1.1863     6.1705    -4.3410 N.pl3        1    LIG   0.0000
  21 C21         -2.4287     6.9471    -4.2120 C.3          1    LIG   0.0000
  22 C22         -3.1159     7.1054    -5.5598 C.3          1    LIG   0.0000
  23 O23         -2.1906     7.4841    -6.5705 O.3          1    LIG   0.0000
  24 C24         -1.2397     6.4508    -6.7936 C.3          1    LIG   0.0000
  25 C25         -0.3719     6.2224    -5.5655 C.3          1    LIG   0.0000
  26 N26         -1.4259     5.1768    -2.1000 N.pl3        1    LIG   0.0000
  27 C27         -2.6221     5.7918    -1.7107 C.ar         1    LIG   0.0000
  28 C28         -2.5835     7.0122    -1.0442 C.ar         1    LIG   0.0000
  29 C29         -3.7766     7.6155    -0.6605 C.ar         1    LIG   0.0000
  30 C30         -4.9914     6.9988    -0.9441 C.ar         1    LIG   0.0000
  31 C31         -5.0205     5.7785    -1.6113 C.ar         1    LIG   0.0000
  32 C32         -3.8317     5.1679    -1.9980 C.ar         1    LIG   0.0000
  33 C33          0.0761     0.0096     0.0018 C.2          1    LIG   0.0000
  34 C34          1.3749    -0.3403    -0.0012 C.2          1    LIG   0.0000
  35 C35          1.5154    -1.8490    -0.0030 C.3          1    LIG   0.0000
  36 C36          0.1703    -2.3503    -0.4743 C.3          1    LIG   0.0000
  37 C37         -0.7459    -1.2623     0.0357 C.3          1    LIG   0.0000
  38 H           -1.8447     4.1976     0.3459 H            1    LIG   0.0000
  39 H            4.1205    -0.8042     2.8363 H            1    LIG   0.0000
  40 H            2.8646     0.2193     2.6320 H            1    LIG   0.0000
  41 H            2.9177    -1.1843     1.7992 H            1    LIG   0.0000
  42 H            6.1116    -0.1242     1.8146 H            1    LIG   0.0000
  43 H            7.2911     0.9714     0.0460 H            1    LIG   0.0000
  44 H            6.0807     1.9891    -1.7473 H            1    LIG   0.0000
  45 H            3.6909     1.9146    -1.7706 H            1    LIG   0.0000
  46 H           -2.2118     7.8527    -3.8473 H            1    LIG   0.0000
  47 H           -3.0463     6.4740    -3.5837 H            1    LIG   0.0000
  48 H           -3.5381     6.2353    -5.8143 H            1    LIG   0.0000
  49 H           -3.8223     7.8093    -5.4846 H            1    LIG   0.0000
  50 H           -0.6544     6.7076    -7.5627 H            1    LIG   0.0000
  51 H           -1.7245     5.6039    -7.0118 H            1    LIG   0.0000
  52 H            0.1178     5.3566    -5.6685 H            1    LIG   0.0000
  53 H            0.2868     6.9707    -5.4877 H            1    LIG   0.0000
  54 H           -1.7076     7.4509    -0.8432 H            1    LIG   0.0000
  55 H           -3.7613     8.4927    -0.1807 H            1    LIG   0.0000
  56 H           -5.8475     7.4350    -0.6670 H            1    LIG   0.0000
  57 H           -5.8963     5.3399    -1.8130 H            1    LIG   0.0000
  58 H           -3.8467     4.2903    -2.4772 H            1    LIG   0.0000
  59 H            1.7167    -2.1868     0.9165 H            1    LIG   0.0000
  60 H            2.2397    -2.1363    -0.6297 H            1    LIG   0.0000
  61 H           -0.0527    -3.2368    -0.0687 H            1    LIG   0.0000
  62 H            0.1349    -2.4215    -1.4711 H            1    LIG   0.0000
  63 H           -1.5480    -1.1757    -0.5552 H            1    LIG   0.0000
  64 H           -1.0403    -1.4631     0.9700 H            1    LIG   0.0000
@<TRIPOS>BOND
   1        1        2 1
   2        2        3 ar
   3        3        4 ar
   4        4        5 ar
   5        5        6 ar
   6        6        7 ar
   7        7        2 ar
   8        7        8 1
   9        8        9 1
  10        9       10 2
  11       10       11 1
  12       11       12 2
  13       11       13 1
  14       13       14 1
  15       14       15 3
  16       13       16 1
  17       16       17 2
  18       17       18 1
  19       18       19 2
  20       19       20 1
  21       20       21 1
  22       21       22 1
  23       22       23 1
  24       23       24 1
  25       24       25 1
  26       25       20 1
  27       19       26 1
  28       26       16 1
  29       26       27 1
  30       27       28 ar
  31       28       29 ar
  32       29       30 ar
  33       30       31 ar
  34       31       32 ar
  35       32       27 ar
  36       10       33 1
  37       33       34 2
  38       34        8 1
  39       34       35 1
  40       35       36 1
  41       36       37 1
  42       37       33 1
  43       13       38 1
  44        1       39 1
  45        1       40 1
  46        1       41 1
  47        3       42 1
  48        4       43 1
  49        5       44 1
  50        6       45 1
  51       21       46 1
  52       21       47 1
  53       22       48 1
  54       22       49 1
  55       24       50 1
  56       24       51 1
  57       25       52 1
  58       25       53 1
  59       28       54 1
  60       29       55 1
  61       30       56 1
  62       31       57 1
  63       32       58 1
  64       35       59 1
  65       35       60 1
  66       36       61 1
  67       36       62 1
  68       37       63 1
  69       37       64 1

@<TRIPOS>MOLECULE

  64   69
SMALL
USER_CHARGES
@<TRIPOS>ATOM
   1 C1           3.5084    -0.3852    -2.1910 C.3          1    LIG   0.0000
   2 C2           4.2358     0.2834    -1.0356 C.ar         1    LIG   0.0000
   3 C3           5.6259     0.3284    -1.0217 C.ar         1    LIG   0.0000
   4 C4           6.2916     0.9400     0.0361 C.ar         1    LIG   0.0000
   5 C5           5.5669     1.5071     1.0792 C.ar         1    LIG   0.0000
   6 C6           4.1766     1.4621     1.0653 C.ar         1    LIG   0.0000
   7 C7           3.5109     0.8509     0.0077 C.ar         1    LIG   0.0000
   8 N8           2.1113     0.8062    -0.0066 N.pl3        1    LIG   0.0000
   9 N9           1.2840     1.8342    -0.0025 N.2          1    LIG   0.0000
  10 C10          0.0364     1.4291    -0.0215 C.2          1    LIG   0.0000
  11 C11         -1.1421     2.2737    -0.0127 C.2          1    LIG   0.0000
  12 O12         -2.2351     1.7788    -0.0325 O.2          1    LIG   0.0000
  13 C13         -0.9931     3.7860     0.0214 C.3          1    LIG   0.0000
  14 C14         -2.2795     4.4330    -0.4653 C.1          1    LIG   0.0000
  15 N15         -3.2444     4.9182    -0.8303 N.1          1    LIG   0.0000
  16 C16         -0.7073     4.2350     1.4453 C.2          1    LIG   0.0000
  17 N17         -1.4824     4.0451     2.4872 N.2          1    LIG   0.0000
  18 N18         -0.9186     4.5671     3.5538 N.2          1    LIG   0.0000
  19 C19          0.2283     5.0995     3.2140 C.2          1    LIG   0.0000
  20 N20          1.1201     5.7532     4.0733 N.pl3        1    LIG   0.0000
  21 C21          2.3740     6.2990     3.5318 C.3          1    LIG   0.0000
  22 C22          3.4910     6.2258     4.5618 C.3          1    LIG   0.0000
  23 O23          3.0529     6.6874     5.8331 O.3          1    LIG   0.0000
  24 C24          2.0486     5.8298     6.3600 C.3          1    LIG   0.0000
  25 C25          0.7917     5.8577     5.5039 C.3          1    LIG   0.0000
  26 N26          0.3921     4.9079     1.8774 N.pl3        1    LIG   0.0000
  27 C27          1.4841     5.3236     1.1058 C.ar         1    LIG   0.0000
  28 C28          1.4649     6.5783     0.5055 C.ar         1    LIG   0.0000
  29 C29          2.5536     6.9827    -0.2599 C.ar         1    LIG   0.0000
  30 C30          3.6464     6.1358    -0.4183 C.ar         1    LIG   0.0000
  31 C31          3.6572     4.8829     0.1859 C.ar         1    LIG   0.0000
  32 C32          2.5720     4.4703     0.9526 C.ar         1    LIG   0.0000
  33 C33          0.0761     0.0096     0.0018 C.2          1    LIG   0.0000
  34 C34          1.3749    -0.3403    -0.0012 C.2          1    LIG   0.0000
  35 C35          1.5154    -1.8490    -0.0030 C.3          1    LIG   0.0000
  36 C36          0.1703    -2.3503    -0.4743 C.3          1    LIG   0.0000
  37 C37         -0.7459    -1.2623     0.0357 C.3          1    LIG   0.0000
  38 H           -0.2367     4.0599    -0.5726 H            1    LIG   0.0000
  39 H            4.1765    -0.7364    -2.8470 H            1    LIG   0.0000
  40 H            2.9537    -1.1411    -1.8430 H            1    LIG   0.0000
  41 H            2.9164     0.2820    -2.6430 H            1    LIG   0.0000
  42 H            6.1469    -0.0788    -1.7719 H            1    LIG   0.0000
  43 H            7.2911     0.9718     0.0464 H            1    LIG   0.0000
  44 H            6.0454     1.9473     1.8390 H            1    LIG   0.0000
  45 H            3.6557     1.8691     1.8156 H            1    LIG   0.0000
  46 H            2.2299     7.2542     3.2731 H            1    LIG   0.0000
  47 H            2.6386     5.7714     2.7246 H            1    LIG   0.0000
  48 H            3.7941     5.2767     4.6466 H            1    LIG   0.0000
  49 H            4.2549     6.7935     4.2547 H            1    LIG   0.0000
  50 H            1.8184     6.1286     7.2861 H            1    LIG   0.0000
  51 H            2.4017     4.8947     6.3895 H            1    LIG   0.0000
  52 H            0.2048     5.0899     5.7608 H            1    LIG   0.0000
  53 H            0.3061     6.7169     5.6652 H            1    LIG   0.0000
  54 H            0.6771     7.1828     0.6229 H            1    LIG   0.0000
  55 H            2.5511     7.8824    -0.6965 H            1    LIG   0.0000
  56 H            4.4277     6.4294    -0.9691 H            1    LIG   0.0000
  57 H            4.4453     4.2785     0.0692 H            1    LIG   0.0000
  58 H            2.5740     3.5704     1.3886 H            1    LIG   0.0000
  59 H            1.7167    -2.1868     0.9165 H            1    LIG   0.0000
  60 H            2.2397    -2.1363    -0.6297 H            1    LIG   0.0000
  61 H           -0.0527    -3.2368    -0.0687 H            1    LIG   0.0000
  62 H            0.1349    -2.4215    -1.4711 H            1    LIG   0.0000
  63 H           -1.5480    -1.1757    -0.5552 H            1    LIG   0.0000
  64 H           -1.0403    -1.4631     0.9700 H            1    LIG   0.0000
@<TRIPOS>BOND
   1        1        2 1
   2        2        3 ar
   3        3        4 ar
   4        4        5 ar
   5        5        6 ar
   6        6        7 ar
   7        7        2 ar
   8        7        8 1
   9        8        9 1
  10        9       10 2
  11       10       11 1
  12       11       12 2
  13       11       13 1
  14       13       14 1
  15       14       15 3
  16       13       16 1
  17       16       17 2
  18       17       18 1
  19       18       19 2
  20       19       20 1
  21       20       21 1
  22       21       22 1
  23       22       23 1
  24       23       24 1
  25       24       25 1
  26       25       20 1
  27       19       26 1
  28       26       16 1
  29       26       27 1
  30       27       28 ar
  31       28       29 ar
  32       29       30 ar
  33       30       31 ar
  34       31       32 ar
  35       32       27 ar
  36       10       33 1
  37       33       34 2
  38       34        8 1
  39       34       35 1
  40       35       36 1
  41       36       37 1
  42       37       33 1
  43       13       38 1
  44        1       39 1
  45        1       40 1
  46        1       41 1
  47        3       42 1
  48        4       43 1
  49        5       44 1
  50        6       45 1
  51       21       46 1
  52       21       47 1
  53       22       48 1
  54       22       49 1
  55       24       50 1
  56       24       51 1
  57       25       52 1
  58       25       53 1
  59       28       54 1
  60       29       55 1
  61       30       56 1
  62       31       57 1
  63       32       58 1
  64       35       59 1
  65       35       60 1
  66       36       61 1
  67       36       62 1
  68       37       63 1
  69       37       64 1

@<TRIPOS>MOLECULE

  64   69
SMALL
USER_CHARGES
@<TRIPOS>ATOM
   1 C1           3.4653    -0.4372     2.1759 C.3          1    LIG   0.0000
   2 C2           4.2152     0.2585     1.0512 C.ar         1    LIG   0.0000
   3 C3           5.6054     0.3022     1.0651 C.ar         1    LIG   0.0000
   4 C4           6.2917     0.9394     0.0358 C.ar         1    LIG   0.0000
   5 C5           5.5875     1.5318    -1.0073 C.ar         1    LIG   0.0000
   6 C6           4.1972     1.4880    -1.0211 C.ar         1    LIG   0.0000
   7 C7           3.5109     0.8509     0.0077 C.ar         1    LIG   0.0000
   8 N8           2.1113     0.8062    -0.0066 N.pl3        1    LIG   0.0000
   9 N9           1.2840     1.8342    -0.0025 N.2          1    LIG   0.0000
  10 C10          0.0364     1.4291    -0.0215 C.2          1    LIG   0.0000
  11 C11         -1.1421     2.2737    -0.0127 C.2          1    LIG   0.0000
  12 O12         -2.2351     1.7788    -0.0325 O.2          1    LIG   0.0000
  13 C13         -0.9931     3.7860     0.0214 C.3          1    LIG   0.0000
  14 C14         -2.2795     4.4330    -0.4653 C.1          1    LIG   0.0000
  15 N15         -3.2444     4.9182    -0.8303 N.1          1    LIG   0.0000
  16 C16         -0.7073     4.2350     1.4453 C.2          1    LIG   0.0000
  17 N17         -1.4824     4.0451     2.4872 N.2          1    LIG   0.0000
  18 N18         -0.9186     4.5671     3.5538 N.2          1    LIG   0.0000
  19 C19          0.2283     5.0995     3.2140 C.2          1    LIG   0.0000
  20 N20          1.1201     5.7532     4.0733 N.pl3        1    LIG   0.0000
  21 C21          2.3740     6.2990     3.5318 C.3          1    LIG   0.0000
  22 C22          3.4910     6.2258     4.5618 C.3          1    LIG   0.0000
  23 O23          3.0529     6.6874     5.8331 O.3          1    LIG   0.0000
  24 C24          2.0486     5.8298     6.3600 C.3          1    LIG   0.0000
  25 C25          0.7917     5.8577     5.5039 C.3          1    LIG   0.0000
  26 N26          0.3921     4.9079     1.8774 N.pl3        1    LIG   0.0000
  27 C27          1.4841     5.3236     1.1058 C.ar         1    LIG   0.0000
  28 C28          1.4649     6.5783     0.5055 C.ar         1    LIG   0.0000
  29 C29          2.5536     6.9827    -0.2599 C.ar         1    LIG   0.0000
  30 C30          3.6464     6.1358    -0.4183 C.ar         1    LIG   0.0000
  31 C31          3.6572     4.8829     0.1859 C.ar         1    LIG   0.0000
  32 C32          2.5720     4.4703     0.9526 C.ar         1    LIG   0.0000
  33 C33          0.0761     0.0096     0.0018 C.2          1    LIG   0.0000
  34 C34          1.3749    -0.3403    -0.0012 C.2          1    LIG   0.0000
  35 C35          1.5154    -1.8490    -0.0030 C.3          1    LIG   0.0000
  36 C36          0.1703    -2.3503    -0.4743 C.3          1    LIG   0.0000
  37 C37         -0.7459    -1.2623     0.0357 C.3          1    LIG   0.0000
  38 H           -0.2367     4.0599    -0.5726 H            1    LIG   0.0000
  39 H            4.1205    -0.8042     2.8363 H            1    LIG   0.0000
  40 H            2.8646     0.2193     2.6320 H            1    LIG   0.0000
  41 H            2.9177    -1.1843     1.7992 H            1    LIG   0.0000
  42 H            6.1116    -0.1242     1.8146 H            1    LIG   0.0000
  43 H            7.2911     0.9714     0.0460 H            1    LIG   0.0000
  44 H            6.0807     1.9891    -1.7473 H            1    LIG   0.0000
  45 H            3.6909     1.9146    -1.7706 H            1    LIG   0.0000
  46 H            2.2299     7.2542     3.2731 H            1    LIG   0.0000
  47 H            2.6386     5.7714     2.7246 H            1    LIG   0.0000
  48 H            3.7941     5.2767     4.6466 H            1    LIG   0.0000
  49 H            4.2549     6.7935     4.2547 H            1    LIG   0.0000
  50 H            1.8184     6.1286     7.2861 H            1    LIG   0.0000
  51 H            2.4017     4.8947     6.3895 H            1    LIG   0.0000
  52 H            0.2048     5.0899     5.7608 H            1    LIG   0.0000
  53 H            0.3061     6.7169     5.6652 H            1    LIG   0.0000
  54 H            0.6771     7.1828     0.6229 H            1    LIG   0.0000
  55 H            2.5511     7.8824    -0.6965 H            1    LIG   0.0000
  56 H            4.4277     6.4294    -0.9691 H            1    LIG   0.0000
  57 H            4.4453     4.2785     0.0692 H            1    LIG   0.0000
  58 H            2.5740     3.5704     1.3886 H            1    LIG   0.0000
  59 H            1.7167    -2.1868     0.9165 H            1    LIG   0.0000
  60 H            2.2397    -2.1363    -0.6297 H            1    LIG   0.0000
  61 H           -0.0527    -3.2368    -0.0687 H            1    LIG   0.0000
  62 H            0.1349    -2.4215    -1.4711 H            1    LIG   0.0000
  63 H           -1.5480    -1.1757    -0.5552 H            1    LIG   0.0000
  64 H           -1.0403    -1.4631     0.9700 H            1    LIG   0.0000
@<TRIPOS>BOND
   1        1        2 1
   2        2        3 ar
   3        3        4 ar
   4        4        5 ar
   5        5        6 ar
   6        6        7 ar
   7        7        2 ar
   8        7        8 1
   9        8        9 1
  10        9       10 2
  11       10       11 1
  12       11       12 2
  13       11       13 1
  14       13       14 1
  15       14       15 3
  16       13       16 1
  17       16       17 2
  18       17       18 1
  19       18       19 2
  20       19       20 1
  21       20       21 1
  22       21       22 1
  23       22       23 1
  24       23       24 1
  25       24       25 1
  26       25       20 1
  27       19       26 1
  28       26       16 1
  29       26       27 1
  30       27       28 ar
  31       28       29 ar
  32       29       30 ar
  33       30       31 ar
  34       31       32 ar
  35       32       27 ar
  36       10       33 1
  37       33       34 2
  38       34        8 1
  39       34       35 1
  40       35       36 1
  41       36       37 1
  42       37       33 1
  43       13       38 1
  44        1       39 1
  45        1       40 1
  46        1       41 1
  47        3       42 1
  48        4       43 1
  49        5       44 1
  50        6       45 1
  51       21       46 1
  52       21       47 1
  53       22       48 1
  54       22       49 1
  55       24       50 1
  56       24       51 1
  57       25       52 1
  58       25       53 1
  59       28       54 1
  60       29       55 1
  61       30       56 1
  62       31       57 1
  63       32       58 1
  64       35       59 1
  65       35       60 1
  66       36       61 1
  67       36       62 1
  68       37       63 1
  69       37       64 1

@<TRIPOS>MOLECULE

  64   69
SMALL
USER_CHARGES
@<TRIPOS>ATOM
   1 C1           3.5084    -0.3852    -2.1910 C.3          1    LIG   0.0000
   2 C2           4.2358     0.2834    -1.0356 C.ar         1    LIG   0.0000
   3 C3           5.6259     0.3284    -1.0217 C.ar         1    LIG   0.0000
   4 C4           6.2916     0.9400     0.0361 C.ar         1    LIG   0.0000
   5 C5           5.5669     1.5071     1.0792 C.ar         1    LIG   0.0000
   6 C6           4.1766     1.4621     1.0653 C.ar         1    LIG   0.0000
   7 C7           3.5109     0.8509     0.0077 C.ar         1    LIG   0.0000
   8 N8           2.1113     0.8062    -0.0066 N.pl3        1    LIG   0.0000
   9 N9           1.2840     1.8342    -0.0025 N.2          1    LIG   0.0000
  10 C10          0.0364     1.4291    -0.0215 C.2          1    LIG   0.0000
  11 C11         -1.1421     2.2737    -0.0127 C.2          1    LIG   0.0000
  12 O12         -2.2351     1.7788    -0.0325 O.2          1    LIG   0.0000
  13 C13         -0.9931     3.7860     0.0214 C.3          1    LIG   0.0000
  14 C14         -0.2202     4.2468    -1.2036 C.1          1    LIG   0.0000
  15 N15          0.3594     4.5923    -2.1224 N.1          1    LIG   0.0000
  16 C16         -2.3697     4.4309     0.0242 C.2          1    LIG   0.0000
  17 N17         -3.2879     4.2996    -0.9042 N.2          1    LIG   0.0000
  18 N18         -4.3505     4.9984    -0.5716 N.2          1    LIG   0.0000
  19 C19         -4.1320     5.5887     0.5765 C.2          1    LIG   0.0000
  20 N20         -5.0271     6.4225     1.2579 N.pl3        1    LIG   0.0000
  21 C21         -4.6270     7.0111     2.5451 C.3          1    LIG   0.0000
  22 C22         -5.8249     7.1684     3.4693 C.3          1    LIG   0.0000
  23 O23         -6.9331     7.7401     2.7865 O.3          1    LIG   0.0000
  24 C24         -7.4020     6.8647     1.7690 C.3          1    LIG   0.0000
  25 C25         -6.3575     6.6711     0.6803 C.3          1    LIG   0.0000
  26 N26         -2.8785     5.2504     0.9822 N.pl3        1    LIG   0.0000
  27 C27         -2.2450     5.6672     2.1593 C.ar         1    LIG   0.0000
  28 C28         -1.4838     6.8315     2.1561 C.ar         1    LIG   0.0000
  29 C29         -0.8575     7.2377     3.3297 C.ar         1    LIG   0.0000
  30 C30         -0.9958     6.4824     4.4902 C.ar         1    LIG   0.0000
  31 C31         -1.7591     5.3195     4.4843 C.ar         1    LIG   0.0000
  32 C32         -2.3885     4.9057     3.3145 C.ar         1    LIG   0.0000
  33 C33          0.0761     0.0096     0.0018 C.2          1    LIG   0.0000
  34 C34          1.3749    -0.3403    -0.0012 C.2          1    LIG   0.0000
  35 C35          1.5154    -1.8490    -0.0030 C.3          1    LIG   0.0000
  36 C36          0.1703    -2.3503    -0.4743 C.3          1    LIG   0.0000
  37 C37         -0.7459    -1.2623     0.0357 C.3          1    LIG   0.0000
  38 H           -0.4980     4.0536     0.8480 H            1    LIG   0.0000
  39 H            4.1765    -0.7364    -2.8470 H            1    LIG   0.0000
  40 H            2.9537    -1.1411    -1.8430 H            1    LIG   0.0000
  41 H            2.9164     0.2820    -2.6430 H            1    LIG   0.0000
  42 H            6.1469    -0.0788    -1.7719 H            1    LIG   0.0000
  43 H            7.2911     0.9718     0.0464 H            1    LIG   0.0000
  44 H            6.0454     1.9473     1.8390 H            1    LIG   0.0000
  45 H            3.6557     1.8691     1.8156 H            1    LIG   0.0000
  46 H           -4.2204     7.9099     2.3812 H            1    LIG   0.0000
  47 H           -3.9532     6.4150     2.9818 H            1    LIG   0.0000
  48 H           -6.0867     6.2689     3.8191 H            1    LIG   0.0000
  49 H           -5.5713     7.7621     4.2330 H            1    LIG   0.0000
  50 H           -8.2289     7.2523     1.3616 H            1    LIG   0.0000
  51 H           -7.6159     5.9769     2.1765 H            1    LIG   0.0000
  52 H           -6.6182     5.8897     0.1133 H            1    LIG   0.0000
  53 H           -6.3190     7.4950     0.1150 H            1    LIG   0.0000
  54 H           -1.3881     7.3706     1.3193 H            1    LIG   0.0000
  55 H           -0.3075     8.0729     3.3394 H            1    LIG   0.0000
  56 H           -0.5443     6.7770     5.3324 H            1    LIG   0.0000
  57 H           -1.8556     4.7807     5.3212 H            1    LIG   0.0000
  58 H           -2.9379     4.0702     3.3043 H            1    LIG   0.0000
  59 H            1.7167    -2.1868     0.9165 H            1    LIG   0.0000
  60 H            2.2397    -2.1363    -0.6297 H            1    LIG   0.0000
  61 H           -0.0527    -3.2368    -0.0687 H            1    LIG   0.0000
  62 H            0.1349    -2.4215    -1.4711 H            1    LIG   0.0000
  63 H           -1.5480    -1.1757    -0.5552 H            1    LIG   0.0000
  64 H           -1.0403    -1.4631     0.9700 H            1    LIG   0.0000
@<TRIPOS>BOND
   1        1        2 1
   2        2        3 ar
   3        3        4 ar
   4        4        5 ar
   5        5        6 ar
   6        6        7 ar
   7        7        2 ar
   8        7        8 1
   9        8        9 1
  10        9       10 2
  11       10       11 1
  12       11       12 2
  13       11       13 1
  14       13       14 1
  15       14       15 3
  16       13       16 1
  17       16       17 2
  18       17       18 1
  19       18       19 2
  20       19       20 1
  21       20       21 1
  22       21       22 1
  23       22       23 1
  24       23       24 1
  25       24       25 1
  26       25       20 1
  27       19       26 1
  28       26       16 1
  29       26       27 1
  30       27       28 ar
  31       28       29 ar
  32       29       30 ar
  33       30       31 ar
  34       31       32 ar
  35       32       27 ar
  36       10       33 1
  37       33       34 2
  38       34        8 1
  39       34       35 1
  40       35       36 1
  41       36       37 1
  42       37       33 1
  43       13       38 1
  44        1       39 1
  45        1       40 1
  46        1       41 1
  47        3       42 1
  48        4       43 1
  49        5       44 1
  50        6       45 1
  51       21       46 1
  52       21       47 1
  53       22       48 1
  54       22       49 1
  55       24       50 1
  56       24       51 1
  57       25       52 1
  58       25       53 1
  59       28       54 1
  60       29       55 1
  61       30       56 1
  62       31       57 1
  63       32       58 1
  64       35       59 1
  65       35       60 1
  66       36       61 1
  67       36       62 1
  68       37       63 1
  69       37       64 1

@<TRIPOS>MOLECULE

  64   69
SMALL
USER_CHARGES
@<TRIPOS>ATOM
   1 C1           3.4653    -0.4372     2.1759 C.3          1    LIG   0.0000
   2 C2           4.2152     0.2585     1.0512 C.ar         1    LIG   0.0000
   3 C3           5.6054     0.3022     1.0651 C.ar         1    LIG   0.0000
   4 C4           6.2917     0.9394     0.0358 C.ar         1    LIG   0.0000
   5 C5           5.5875     1.5318    -1.0073 C.ar         1    LIG   0.0000
   6 C6           4.1972     1.4880    -1.0211 C.ar         1    LIG   0.0000
   7 C7           3.5109     0.8509     0.0077 C.ar         1    LIG   0.0000
   8 N8           2.1113     0.8062    -0.0066 N.pl3        1    LIG   0.0000
   9 N9           1.2840     1.8342    -0.0025 N.2          1    LIG   0.0000
  10 C10          0.0364     1.4291    -0.0215 C.2          1    LIG   0.0000
  11 C11         -1.1421     2.2737    -0.0127 C.2          1    LIG   0.0000
  12 O12         -2.2351     1.7788    -0.0325 O.2          1    LIG   0.0000
  13 C13         -0.9931     3.7860     0.0214 C.3          1    LIG   0.0000
  14 C14         -0.2202     4.2468    -1.2036 C.1          1    LIG   0.0000
  15 N15          0.3594     4.5923    -2.1224 N.1          1    LIG   0.0000
  16 C16         -2.3697     4.4309     0.0242 C.2          1    LIG   0.0000
  17 N17         -3.2879     4.2996    -0.9042 N.2          1    LIG   0.0000
  18 N18         -4.3505     4.9984    -0.5716 N.2          1    LIG   0.0000
  19 C19         -4.1320     5.5887     0.5765 C.2          1    LIG   0.0000
  20 N20         -5.0271     6.4225     1.2579 N.pl3        1    LIG   0.0000
  21 C21         -4.6270     7.0111     2.5451 C.3          1    LIG   0.0000
  22 C22         -5.8249     7.1684     3.4693 C.3          1    LIG   0.0000
  23 O23         -6.9331     7.7401     2.7865 O.3          1    LIG   0.0000
  24 C24         -7.4020     6.8647     1.7690 C.3          1    LIG   0.0000
  25 C25         -6.3575     6.6711     0.6803 C.3          1    LIG   0.0000
  26 N26         -2.8785     5.2504     0.9822 N.pl3        1    LIG   0.0000
  27 C27         -2.2450     5.6672     2.1593 C.ar         1    LIG   0.0000
  28 C28         -1.4838     6.8315     2.1561 C.ar         1    LIG   0.0000
  29 C29         -0.8575     7.2377     3.3297 C.ar         1    LIG   0.0000
  30 C30         -0.9958     6.4824     4.4902 C.ar         1    LIG   0.0000
  31 C31         -1.7591     5.3195     4.4843 C.ar         1    LIG   0.0000
  32 C32         -2.3885     4.9057     3.3145 C.ar         1    LIG   0.0000
  33 C33          0.0761     0.0096     0.0018 C.2          1    LIG   0.0000
  34 C34          1.3749    -0.3403    -0.0012 C.2          1    LIG   0.0000
  35 C35          1.5154    -1.8490    -0.0030 C.3          1    LIG   0.0000
  36 C36          0.1703    -2.3503    -0.4743 C.3          1    LIG   0.0000
  37 C37         -0.7459    -1.2623     0.0357 C.3          1    LIG   0.0000
  38 H           -0.4980     4.0536     0.8480 H            1    LIG   0.0000
  39 H            4.1205    -0.8042     2.8363 H            1    LIG   0.0000
  40 H            2.8646     0.2193     2.6320 H            1    LIG   0.0000
  41 H            2.9177    -1.1843     1.7992 H            1    LIG   0.0000
  42 H            6.1116    -0.1242     1.8146 H            1    LIG   0.0000
  43 H            7.2911     0.9714     0.0460 H            1    LIG   0.0000
  44 H            6.0807     1.9891    -1.7473 H            1    LIG   0.0000
  45 H            3.6909     1.9146    -1.7706 H            1    LIG   0.0000
  46 H           -4.2204     7.9099     2.3812 H            1    LIG   0.0000
  47 H           -3.9532     6.4150     2.9818 H            1    LIG   0.0000
  48 H           -6.0867     6.2689     3.8191 H            1    LIG   0.0000
  49 H           -5.5713     7.7621     4.2330 H            1    LIG   0.0000
  50 H           -8.2289     7.2523     1.3616 H            1    LIG   0.0000
  51 H           -7.6159     5.9769     2.1765 H            1    LIG   0.0000
  52 H           -6.6182     5.8897     0.1133 H            1    LIG   0.0000
  53 H           -6.3190     7.4950     0.1150 H            1    LIG   0.0000
  54 H           -1.3881     7.3706     1.3193 H            1    LIG   0.0000
  55 H           -0.3075     8.0729     3.3394 H            1    LIG   0.0000
  56 H           -0.5443     6.7770     5.3324 H            1    LIG   0.0000
  57 H           -1.8556     4.7807     5.3212 H            1    LIG   0.0000
  58 H           -2.9379     4.0702     3.3043 H            1    LIG   0.0000
  59 H            1.7167    -2.1868     0.9165 H            1    LIG   0.0000
  60 H            2.2397    -2.1363    -0.6297 H            1    LIG   0.0000
  61 H           -0.0527    -3.2368    -0.0687 H            1    LIG   0.0000
  62 H            0.1349    -2.4215    -1.4711 H            1    LIG   0.0000
  63 H           -1.5480    -1.1757    -0.5552 H            1    LIG   0.0000
  64 H           -1.0403    -1.4631     0.9700 H            1    LIG   0.0000
@<TRIPOS>BOND
   1        1        2 1
   2        2        3 ar
   3        3        4 ar
   4        4        5 ar
   5        5        6 ar
   6        6        7 ar
   7        7        2 ar
   8        7        8 1
   9        8        9 1
  10        9       10 2
  11       10       11 1
  12       11       12 2
  13       11       13 1
  14       13       14 1
  15       14       15 3
  16       13       16 1
  17       16       17 2
  18       17       18 1
  19       18       19 2
  20       19       20 1
  21       20       21 1
  22       21       22 1
  23       22       23 1
  24       23       24 1
  25       24       25 1
  26       25       20 1
  27       19       26 1
  28       26       16 1
  29       26       27 1
  30       27       28 ar
  31       28       29 ar
  32       29       30 ar
  33       30       31 ar
  34       31       32 ar
  35       32       27 ar
  36       10       33 1
  37       33       34 2
  38       34        8 1
  39       34       35 1
  40       35       36 1
  41       36       37 1
  42       37       33 1
  43       13       38 1
  44        1       39 1
  45        1       40 1
  46        1       41 1
  47        3       42 1
  48        4       43 1
  49        5       44 1
  50        6       45 1
  51       21       46 1
  52       21       47 1
  53       22       48 1
  54       22       49 1
  55       24       50 1
  56       24       51 1
  57       25       52 1
  58       25       53 1
  59       28       54 1
  60       29       55 1
  61       30       56 1
  62       31       57 1
  63       32       58 1
  64       35       59 1
  65       35       60 1
  66       36       61 1
  67       36       62 1
  68       37       63 1
  69       37       64 1

@<TRIPOS>MOLECULE

  64   69
SMALL
USER_CHARGES
@<TRIPOS>ATOM
   1 C1           3.4422     1.7389    -2.3521 C.3          1    LIG   0.0000
   2 C2           4.2042     1.2985    -1.1125 C.ar         1    LIG   0.0000
   3 C3           5.5943     1.3435    -1.0981 C.ar         1    LIG   0.0000
   4 C4           6.2916     0.9399     0.0364 C.ar         1    LIG   0.0000
   5 C5           5.5985     0.4923     1.1563 C.ar         1    LIG   0.0000
   6 C6           4.2082     0.4472     1.1417 C.ar         1    LIG   0.0000
   7 C7           3.5109     0.8509     0.0077 C.ar         1    LIG   0.0000
   8 N8           2.1113     0.8062    -0.0066 N.pl3        1    LIG   0.0000
   9 N9           1.2840     1.8342    -0.0025 N.2          1    LIG   0.0000
  10 C10          0.0364     1.4291    -0.0215 C.2          1    LIG   0.0000
  11 C11         -1.1421     2.2737    -0.0127 C.2          1    LIG   0.0000
  12 O12         -2.2351     1.7788    -0.0325 O.2          1    LIG   0.0000
  13 C13         -0.9931     3.7860     0.0214 C.3          1    LIG   0.0000
  14 C14         -0.2202     4.2468    -1.2036 C.1          1    LIG   0.0000
  15 N15          0.3594     4.5923    -2.1224 N.1          1    LIG   0.0000
  16 C16         -2.3697     4.4309     0.0242 C.2          1    LIG   0.0000
  17 N17         -3.2879     4.2996    -0.9042 N.2          1    LIG   0.0000
  18 N18         -4.3505     4.9984    -0.5716 N.2          1    LIG   0.0000
  19 C19         -4.1320     5.5887     0.5765 C.2          1    LIG   0.0000
  20 N20         -5.0271     6.4225     1.2579 N.pl3        1    LIG   0.0000
  21 C21         -6.3492     6.6925     0.6724 C.3          1    LIG   0.0000
  22 C22         -6.8252     8.0942     1.0223 C.3          1    LIG   0.0000
  23 O23         -6.6332     8.3759     2.4025 O.3          1    LIG   0.0000
  24 C24         -5.2480     8.3980     2.7226 C.3          1    LIG   0.0000
  25 C25         -4.6141     7.0283     2.5337 C.3          1    LIG   0.0000
  26 N26         -2.8785     5.2504     0.9822 N.pl3        1    LIG   0.0000
  27 C27         -2.2450     5.6672     2.1593 C.ar         1    LIG   0.0000
  28 C28         -1.4838     6.8315     2.1561 C.ar         1    LIG   0.0000
  29 C29         -0.8575     7.2377     3.3297 C.ar         1    LIG   0.0000
  30 C30         -0.9958     6.4824     4.4902 C.ar         1    LIG   0.0000
  31 C31         -1.7591     5.3195     4.4843 C.ar         1    LIG   0.0000
  32 C32         -2.3885     4.9057     3.3145 C.ar         1    LIG   0.0000
  33 C33          0.0761     0.0096     0.0018 C.2          1    LIG   0.0000
  34 C34          1.3749    -0.3403    -0.0012 C.2          1    LIG   0.0000
  35 C35          1.5154    -1.8490    -0.0030 C.3          1    LIG   0.0000
  36 C36          0.1703    -2.3503    -0.4743 C.3          1    LIG   0.0000
  37 C37         -0.7459    -1.2623     0.0357 C.3          1    LIG   0.0000
  38 H           -0.4980     4.0536     0.8480 H            1    LIG   0.0000
  39 H            4.0904     2.0280    -3.0566 H            1    LIG   0.0000
  40 H            2.8949     0.9758    -2.6957 H            1    LIG   0.0000
  41 H            2.8402     2.5027    -2.1195 H            1    LIG   0.0000
  42 H            6.0925     1.6659    -1.9029 H            1    LIG   0.0000
  43 H            7.2911     0.9716     0.0467 H            1    LIG   0.0000
  44 H            6.0997     0.2028     1.9718 H            1    LIG   0.0000
  45 H            3.7100     0.1246     1.9465 H            1    LIG   0.0000
  46 H           -7.0057     6.0265     1.0265 H            1    LIG   0.0000
  47 H           -6.2901     6.6060    -0.3221 H            1    LIG   0.0000
  48 H           -6.3102     8.7579     0.4797 H            1    LIG   0.0000
  49 H           -7.7986     8.1710     0.8065 H            1    LIG   0.0000
  50 H           -5.1387     8.6786     3.6762 H            1    LIG   0.0000
  51 H           -4.7866     9.0553     2.1267 H            1    LIG   0.0000
  52 H           -3.6189     7.1255     2.5416 H            1    LIG   0.0000
  53 H           -4.8967     6.4316     3.2848 H            1    LIG   0.0000
  54 H           -1.3881     7.3706     1.3193 H            1    LIG   0.0000
  55 H           -0.3075     8.0729     3.3394 H            1    LIG   0.0000
  56 H           -0.5443     6.7770     5.3324 H            1    LIG   0.0000
  57 H           -1.8556     4.7807     5.3212 H            1    LIG   0.0000
  58 H           -2.9379     4.0702     3.3043 H            1    LIG   0.0000
  59 H            1.7167    -2.1868     0.9165 H            1    LIG   0.0000
  60 H            2.2397    -2.1363    -0.6297 H            1    LIG   0.0000
  61 H           -0.0527    -3.2368    -0.0687 H            1    LIG   0.0000
  62 H            0.1349    -2.4215    -1.4711 H            1    LIG   0.0000
  63 H           -1.5480    -1.1757    -0.5552 H            1    LIG   0.0000
  64 H           -1.0403    -1.4631     0.9700 H            1    LIG   0.0000
@<TRIPOS>BOND
   1        1        2 1
   2        2        3 ar
   3        3        4 ar
   4        4        5 ar
   5        5        6 ar
   6        6        7 ar
   7        7        2 ar
   8        7        8 1
   9        8        9 1
  10        9       10 2
  11       10       11 1
  12       11       12 2
  13       11       13 1
  14       13       14 1
  15       14       15 3
  16       13       16 1
  17       16       17 2
  18       17       18 1
  19       18       19 2
  20       19       20 1
  21       20       21 1
  22       21       22 1
  23       22       23 1
  24       23       24 1
  25       24       25 1
  26       25       20 1
  27       19       26 1
  28       26       16 1
  29       26       27 1
  30       27       28 ar
  31       28       29 ar
  32       29       30 ar
  33       30       31 ar
  34       31       32 ar
  35       32       27 ar
  36       10       33 1
  37       33       34 2
  38       34        8 1
  39       34       35 1
  40       35       36 1
  41       36       37 1
  42       37       33 1
  43       13       38 1
  44        1       39 1
  45        1       40 1
  46        1       41 1
  47        3       42 1
  48        4       43 1
  49        5       44 1
  50        6       45 1
  51       21       46 1
  52       21       47 1
  53       22       48 1
  54       22       49 1
  55       24       50 1
  56       24       51 1
  57       25       52 1
  58       25       53 1
  59       28       54 1
  60       29       55 1
  61       30       56 1
  62       31       57 1
  63       32       58 1
  64       35       59 1
  65       35       60 1
  66       36       61 1
  67       36       62 1
  68       37       63 1
  69       37       64 1

@<TRIPOS>MOLECULE

  64   69
SMALL
USER_CHARGES
@<TRIPOS>ATOM
   1 C1           3.3956     1.6825     2.3862 C.3          1    LIG   0.0000
   2 C2           4.1819     1.2714     1.1517 C.ar         1    LIG   0.0000
   3 C3           5.5720     1.3151     1.1662 C.ar         1    LIG   0.0000
   4 C4           6.2917     0.9392     0.0361 C.ar         1    LIG   0.0000
   5 C5           5.6208     0.5190    -1.1077 C.ar         1    LIG   0.0000
   6 C6           4.2305     0.4753    -1.1221 C.ar         1    LIG   0.0000
   7 C7           3.5109     0.8509     0.0077 C.ar         1    LIG   0.0000
   8 N8           2.1113     0.8062    -0.0066 N.pl3        1    LIG   0.0000
   9 N9           1.2840     1.8342    -0.0025 N.2          1    LIG   0.0000
  10 C10          0.0364     1.4291    -0.0215 C.2          1    LIG   0.0000
  11 C11         -1.1421     2.2737    -0.0127 C.2          1    LIG   0.0000
  12 O12         -2.2351     1.7788    -0.0325 O.2          1    LIG   0.0000
  13 C13         -0.9931     3.7860     0.0214 C.3          1    LIG   0.0000
  14 C14         -0.2202     4.2468    -1.2036 C.1          1    LIG   0.0000
  15 N15          0.3594     4.5923    -2.1224 N.1          1    LIG   0.0000
  16 C16         -2.3697     4.4309     0.0242 C.2          1    LIG   0.0000
  17 N17         -3.2879     4.2996    -0.9042 N.2          1    LIG   0.0000
  18 N18         -4.3505     4.9984    -0.5716 N.2          1    LIG   0.0000
  19 C19         -4.1320     5.5887     0.5765 C.2          1    LIG   0.0000
  20 N20         -5.0271     6.4225     1.2579 N.pl3        1    LIG   0.0000
  21 C21         -6.3492     6.6925     0.6724 C.3          1    LIG   0.0000
  22 C22         -6.8252     8.0942     1.0223 C.3          1    LIG   0.0000
  23 O23         -6.6332     8.3759     2.4025 O.3          1    LIG   0.0000
  24 C24         -5.2480     8.3980     2.7226 C.3          1    LIG   0.0000
  25 C25         -4.6141     7.0283     2.5337 C.3          1    LIG   0.0000
  26 N26         -2.8785     5.2504     0.9822 N.pl3        1    LIG   0.0000
  27 C27         -2.2450     5.6672     2.1593 C.ar         1    LIG   0.0000
  28 C28         -1.4838     6.8315     2.1561 C.ar         1    LIG   0.0000
  29 C29         -0.8575     7.2377     3.3297 C.ar         1    LIG   0.0000
  30 C30         -0.9958     6.4824     4.4902 C.ar         1    LIG   0.0000
  31 C31         -1.7591     5.3195     4.4843 C.ar         1    LIG   0.0000
  32 C32         -2.3885     4.9057     3.3145 C.ar         1    LIG   0.0000
  33 C33          0.0761     0.0096     0.0018 C.2          1    LIG   0.0000
  34 C34          1.3749    -0.3403    -0.0012 C.2          1    LIG   0.0000
  35 C35          1.5154    -1.8490    -0.0030 C.3          1    LIG   0.0000
  36 C36          0.1703    -2.3503    -0.4743 C.3          1    LIG   0.0000
  37 C37         -0.7459    -1.2623     0.0357 C.3          1    LIG   0.0000
  38 H           -0.4980     4.0536     0.8480 H            1    LIG   0.0000
  39 H            4.0297     1.9545     3.1100 H            1    LIG   0.0000
  40 H            2.7982     2.4519     2.1599 H            1    LIG   0.0000
  41 H            2.8416     0.9116     2.7006 H            1    LIG   0.0000
  42 H            6.0543     1.6166     1.9887 H            1    LIG   0.0000
  43 H            7.2911     0.9712     0.0462 H            1    LIG   0.0000
  44 H            6.1380     0.2482    -1.9196 H            1    LIG   0.0000
  45 H            3.7483     0.1740    -1.9446 H            1    LIG   0.0000
  46 H           -7.0057     6.0265     1.0265 H            1    LIG   0.0000
  47 H           -6.2901     6.6060    -0.3221 H            1    LIG   0.0000
  48 H           -6.3102     8.7579     0.4797 H            1    LIG   0.0000
  49 H           -7.7986     8.1710     0.8065 H            1    LIG   0.0000
  50 H           -5.1387     8.6786     3.6762 H            1    LIG   0.0000
  51 H           -4.7866     9.0553     2.1267 H            1    LIG   0.0000
  52 H           -3.6189     7.1255     2.5416 H            1    LIG   0.0000
  53 H           -4.8967     6.4316     3.2848 H            1    LIG   0.0000
  54 H           -1.3881     7.3706     1.3193 H            1    LIG   0.0000
  55 H           -0.3075     8.0729     3.3394 H            1    LIG   0.0000
  56 H           -0.5443     6.7770     5.3324 H            1    LIG   0.0000
  57 H           -1.8556     4.7807     5.3212 H            1    LIG   0.0000
  58 H           -2.9379     4.0702     3.3043 H            1    LIG   0.0000
  59 H            1.7167    -2.1868     0.9165 H            1    LIG   0.0000
  60 H            2.2397    -2.1363    -0.6297 H            1    LIG   0.0000
  61 H           -0.0527    -3.2368    -0.0687 H            1    LIG   0.0000
  62 H            0.1349    -2.4215    -1.4711 H            1    LIG   0.0000
  63 H           -1.5480    -1.1757    -0.5552 H            1    LIG   0.0000
  64 H           -1.0403    -1.4631     0.9700 H            1    LIG   0.0000
@<TRIPOS>BOND
   1        1        2 1
   2        2        3 ar
   3        3        4 ar
   4        4        5 ar
   5        5        6 ar
   6        6        7 ar
   7        7        2 ar
   8        7        8 1
   9        8        9 1
  10        9       10 2
  11       10       11 1
  12       11       12 2
  13       11       13 1
  14       13       14 1
  15       14       15 3
  16       13       16 1
  17       16       17 2
  18       17       18 1
  19       18       19 2
  20       19       20 1
  21       20       21 1
  22       21       22 1
  23       22       23 1
  24       23       24 1
  25       24       25 1
  26       25       20 1
  27       19       26 1
  28       26       16 1
  29       26       27 1
  30       27       28 ar
  31       28       29 ar
  32       29       30 ar
  33       30       31 ar
  34       31       32 ar
  35       32       27 ar
  36       10       33 1
  37       33       34 2
  38       34        8 1
  39       34       35 1
  40       35       36 1
  41       36       37 1
  42       37       33 1
  43       13       38 1
  44        1       39 1
  45        1       40 1
  46        1       41 1
  47        3       42 1
  48        4       43 1
  49        5       44 1
  50        6       45 1
  51       21       46 1
  52       21       47 1
  53       22       48 1
  54       22       49 1
  55       24       50 1
  56       24       51 1
  57       25       52 1
  58       25       53 1
  59       28       54 1
  60       29       55 1
  61       30       56 1
  62       31       57 1
  63       32       58 1
  64       35       59 1
  65       35       60 1
  66       36       61 1
  67       36       62 1
  68       37       63 1
  69       37       64 1

@<TRIPOS>MOLECULE

  64   69
SMALL
USER_CHARGES
@<TRIPOS>ATOM
   1 C1           3.3874     1.6982    -2.4051 C.3          1    LIG   0.0000
   2 C2           4.1764     1.2727    -1.1772 C.ar         1    LIG   0.0000
   3 C3           5.5666     1.3144    -1.1950 C.ar         1    LIG   0.0000
   4 C4           6.2887     0.9246    -0.0713 C.ar         1    LIG   0.0000
   5 C5           5.6203     0.4940     1.0701 C.ar         1    LIG   0.0000
   6 C6           4.2300     0.4523     1.0878 C.ar         1    LIG   0.0000
   7 C7           3.5079     0.8422    -0.0355 C.ar         1    LIG   0.0000
   8 N8           2.1082     0.8009    -0.0173 N.pl3        1    LIG   0.0000
   9 N9           1.2846     1.8327    -0.0084 N.2          1    LIG   0.0000
  10 C10          0.0416     1.4125     0.0129 C.2          1    LIG   0.0000
  11 C11         -1.1331     2.2609     0.0084 C.2          1    LIG   0.0000
  12 O12         -1.0112     3.4544    -0.0165 O.2          1    LIG   0.0000
  13 C13         -2.5198     1.6390     0.0351 C.3          1    LIG   0.0000
  14 C14         -2.6758     0.8026     1.2947 C.1          1    LIG   0.0000
  15 N15         -2.7927     0.1752     2.2393 N.1          1    LIG   0.0000
  16 C16         -3.5688     2.7392     0.0244 C.2          1    LIG   0.0000
  17 N17         -3.7100     3.6830     0.9251 N.2          1    LIG   0.0000
  18 N18         -4.7197     4.4571     0.5943 N.2          1    LIG   0.0000
  19 C19         -5.2422     4.0233    -0.5250 C.2          1    LIG   0.0000
  20 N20         -6.3365     4.5839    -1.1952 N.pl3        1    LIG   0.0000
  21 C21         -6.9962     5.7715    -0.6313 C.3          1    LIG   0.0000
  22 C22         -8.4859     5.7661    -0.9388 C.3          1    LIG   0.0000
  23 O23         -8.7310     5.4474    -2.3025 O.3          1    LIG   0.0000
  24 C24         -8.3205     4.1165    -2.5888 C.3          1    LIG   0.0000
  25 C25         -6.8156     3.9565    -2.4370 C.3          1    LIG   0.0000
  26 N26         -4.5345     2.9286    -0.9136 N.pl3        1    LIG   0.0000
  27 C27         -4.7616     2.1555    -2.0588 C.ar         1    LIG   0.0000
  28 C28         -5.6228     1.0651    -1.9934 C.ar         1    LIG   0.0000
  29 C29         -5.8419     0.3022    -3.1357 C.ar         1    LIG   0.0000
  30 C30         -5.2031     0.6329    -4.3269 C.ar         1    LIG   0.0000
  31 C31         -4.3437     1.7252    -4.3832 C.ar         1    LIG   0.0000
  32 C32         -4.1185     2.4932    -3.2451 C.ar         1    LIG   0.0000
  33 C33          0.0661     0.0021     0.0183 C.2          1    LIG   0.0000
  34 C34          1.3570    -0.3431    -0.0128 C.2          1    LIG   0.0000
  35 C35          1.4938    -1.8533    -0.0478 C.3          1    LIG   0.0000
  36 C36          0.1679    -2.3334     0.5226 C.3          1    LIG   0.0000
  37 C37         -0.7641    -1.2691    -0.0179 C.3          1    LIG   0.0000
  38 H           -2.6395     1.0565    -0.7688 H            1    LIG   0.0000
  39 H            4.0199     1.9760    -3.1280 H            1    LIG   0.0000
  40 H            2.8307     0.9317    -2.7256 H            1    LIG   0.0000
  41 H            2.7924     2.4666    -2.1692 H            1    LIG   0.0000
  42 H            6.0471     1.6245    -2.0154 H            1    LIG   0.0000
  43 H            7.2882     0.9540    -0.0842 H            1    LIG   0.0000
  44 H            6.1393     0.2145     1.8779 H            1    LIG   0.0000
  45 H            3.7495     0.1419     1.9081 H            1    LIG   0.0000
  46 H           -6.5839     6.5927    -1.0258 H            1    LIG   0.0000
  47 H           -6.8671     5.7772     0.3603 H            1    LIG   0.0000
  48 H           -8.9356     5.0863    -0.3595 H            1    LIG   0.0000
  49 H           -8.8621     6.6718    -0.7434 H            1    LIG   0.0000
  50 H           -8.5789     3.8911    -3.5281 H            1    LIG   0.0000
  51 H           -8.7797     3.4913    -1.9576 H            1    LIG   0.0000
  52 H           -6.5914     2.9821    -2.4178 H            1    LIG   0.0000
  53 H           -6.3614     4.3877    -3.2167 H            1    LIG   0.0000
  54 H           -6.0793     0.8322    -1.1348 H            1    LIG   0.0000
  55 H           -6.4587    -0.4841    -3.1008 H            1    LIG   0.0000
  56 H           -5.3627     0.0825    -5.1465 H            1    LIG   0.0000
  57 H           -3.8877     1.9587    -5.2420 H            1    LIG   0.0000
  58 H           -3.5012     3.2791    -3.2796 H            1    LIG   0.0000
  59 H            2.2595    -2.1575     0.5188 H            1    LIG   0.0000
  60 H            1.6212    -2.1805    -0.9841 H            1    LIG   0.0000
  61 H            0.1776    -2.3429     1.5225 H            1    LIG   0.0000
  62 H           -0.0729    -3.2426     0.1829 H            1    LIG   0.0000
  63 H           -1.0439    -1.4840    -0.9536 H            1    LIG   0.0000
  64 H           -1.5750    -1.1803     0.5605 H            1    LIG   0.0000
@<TRIPOS>BOND
   1        1        2 1
   2        2        3 ar
   3        3        4 ar
   4        4        5 ar
   5        5        6 ar
   6        6        7 ar
   7        7        2 ar
   8        7        8 1
   9        8        9 1
  10        9       10 2
  11       10       11 1
  12       11       12 2
  13       11       13 1
  14       13       14 1
  15       14       15 3
  16       13       16 1
  17       16       17 2
  18       17       18 1
  19       18       19 2
  20       19       20 1
  21       20       21 1
  22       21       22 1
  23       22       23 1
  24       23       24 1
  25       24       25 1
  26       25       20 1
  27       19       26 1
  28       26       16 1
  29       26       27 1
  30       27       28 ar
  31       28       29 ar
  32       29       30 ar
  33       30       31 ar
  34       31       32 ar
  35       32       27 ar
  36       10       33 1
  37       33       34 2
  38       34        8 1
  39       34       35 1
  40       35       36 1
  41       36       37 1
  42       37       33 1
  43       13       38 1
  44        1       39 1
  45        1       40 1
  46        1       41 1
  47        3       42 1
  48        4       43 1
  49        5       44 1
  50        6       45 1
  51       21       46 1
  52       21       47 1
  53       22       48 1
  54       22       49 1
  55       24       50 1
  56       24       51 1
  57       25       52 1
  58       25       53 1
  59       28       54 1
  60       29       55 1
  61       30       56 1
  62       31       57 1
  63       32       58 1
  64       35       59 1
  65       35       60 1
  66       36       61 1
  67       36       62 1
  68       37       63 1
  69       37       64 1

@<TRIPOS>MOLECULE

  64   69
SMALL
USER_CHARGES
@<TRIPOS>ATOM
   1 C1           3.4486     1.7065     2.3334 C.3          1    LIG   0.0000
   2 C2           4.2057     1.2766     1.0871 C.ar         1    LIG   0.0000
   3 C3           5.5959     1.3170     1.0693 C.ar         1    LIG   0.0000
   4 C4           6.2887     0.9239    -0.0716 C.ar         1    LIG   0.0000
   5 C5           5.5911     0.4898    -1.1939 C.ar         1    LIG   0.0000
   6 C6           4.2007     0.4495    -1.1761 C.ar         1    LIG   0.0000
   7 C7           3.5079     0.8422    -0.0355 C.ar         1    LIG   0.0000
   8 N8           2.1082     0.8009    -0.0173 N.pl3        1    LIG   0.0000
   9 N9           1.2846     1.8327    -0.0084 N.2          1    LIG   0.0000
  10 C10          0.0416     1.4125     0.0129 C.2          1    LIG   0.0000
  11 C11         -1.1331     2.2609     0.0084 C.2          1    LIG   0.0000
  12 O12         -1.0112     3.4544    -0.0165 O.2          1    LIG   0.0000
  13 C13         -2.5198     1.6390     0.0351 C.3          1    LIG   0.0000
  14 C14         -2.6758     0.8026     1.2947 C.1          1    LIG   0.0000
  15 N15         -2.7927     0.1752     2.2393 N.1          1    LIG   0.0000
  16 C16         -3.5688     2.7392     0.0244 C.2          1    LIG   0.0000
  17 N17         -3.7100     3.6830     0.9251 N.2          1    LIG   0.0000
  18 N18         -4.7197     4.4571     0.5943 N.2          1    LIG   0.0000
  19 C19         -5.2422     4.0233    -0.5250 C.2          1    LIG   0.0000
  20 N20         -6.3365     4.5839    -1.1952 N.pl3        1    LIG   0.0000
  21 C21         -6.9962     5.7715    -0.6313 C.3          1    LIG   0.0000
  22 C22         -8.4859     5.7661    -0.9388 C.3          1    LIG   0.0000
  23 O23         -8.7310     5.4474    -2.3025 O.3          1    LIG   0.0000
  24 C24         -8.3205     4.1165    -2.5888 C.3          1    LIG   0.0000
  25 C25         -6.8156     3.9565    -2.4370 C.3          1    LIG   0.0000
  26 N26         -4.5345     2.9286    -0.9136 N.pl3        1    LIG   0.0000
  27 C27         -4.7616     2.1555    -2.0588 C.ar         1    LIG   0.0000
  28 C28         -5.6228     1.0651    -1.9934 C.ar         1    LIG   0.0000
  29 C29         -5.8419     0.3022    -3.1357 C.ar         1    LIG   0.0000
  30 C30         -5.2031     0.6329    -4.3269 C.ar         1    LIG   0.0000
  31 C31         -4.3437     1.7252    -4.3832 C.ar         1    LIG   0.0000
  32 C32         -4.1185     2.4932    -3.2451 C.ar         1    LIG   0.0000
  33 C33          0.0661     0.0021     0.0183 C.2          1    LIG   0.0000
  34 C34          1.3570    -0.3431    -0.0128 C.2          1    LIG   0.0000
  35 C35          1.4938    -1.8533    -0.0478 C.3          1    LIG   0.0000
  36 C36          0.1679    -2.3334     0.5226 C.3          1    LIG   0.0000
  37 C37         -0.7641    -1.2691    -0.0179 C.3          1    LIG   0.0000
  38 H           -2.6395     1.0565    -0.7688 H            1    LIG   0.0000
  39 H            4.0997     1.9867     3.0389 H            1    LIG   0.0000
  40 H            2.8479     2.4742     2.1103 H            1    LIG   0.0000
  41 H            2.9003     0.9413     2.6709 H            1    LIG   0.0000
  42 H            6.0975     1.6285     1.8764 H            1    LIG   0.0000
  43 H            7.2882     0.9535    -0.0847 H            1    LIG   0.0000
  44 H            6.0890     0.2067    -2.0136 H            1    LIG   0.0000
  45 H            3.6991     0.1382    -1.9833 H            1    LIG   0.0000
  46 H           -6.5839     6.5927    -1.0258 H            1    LIG   0.0000
  47 H           -6.8671     5.7772     0.3603 H            1    LIG   0.0000
  48 H           -8.9356     5.0863    -0.3595 H            1    LIG   0.0000
  49 H           -8.8621     6.6718    -0.7434 H            1    LIG   0.0000
  50 H           -8.5789     3.8911    -3.5281 H            1    LIG   0.0000
  51 H           -8.7797     3.4913    -1.9576 H            1    LIG   0.0000
  52 H           -6.5914     2.9821    -2.4178 H            1    LIG   0.0000
  53 H           -6.3614     4.3877    -3.2167 H            1    LIG   0.0000
  54 H           -6.0793     0.8322    -1.1348 H            1    LIG   0.0000
  55 H           -6.4587    -0.4841    -3.1008 H            1    LIG   0.0000
  56 H           -5.3627     0.0825    -5.1465 H            1    LIG   0.0000
  57 H           -3.8877     1.9587    -5.2420 H            1    LIG   0.0000
  58 H           -3.5012     3.2791    -3.2796 H            1    LIG   0.0000
  59 H            2.2595    -2.1575     0.5188 H            1    LIG   0.0000
  60 H            1.6212    -2.1805    -0.9841 H            1    LIG   0.0000
  61 H            0.1776    -2.3429     1.5225 H            1    LIG   0.0000
  62 H           -0.0729    -3.2426     0.1829 H            1    LIG   0.0000
  63 H           -1.0439    -1.4840    -0.9536 H            1    LIG   0.0000
  64 H           -1.5750    -1.1803     0.5605 H            1    LIG   0.0000
@<TRIPOS>BOND
   1        1        2 1
   2        2        3 ar
   3        3        4 ar
   4        4        5 ar
   5        5        6 ar
   6        6        7 ar
   7        7        2 ar
   8        7        8 1
   9        8        9 1
  10        9       10 2
  11       10       11 1
  12       11       12 2
  13       11       13 1
  14       13       14 1
  15       14       15 3
  16       13       16 1
  17       16       17 2
  18       17       18 1
  19       18       19 2
  20       19       20 1
  21       20       21 1
  22       21       22 1
  23       22       23 1
  24       23       24 1
  25       24       25 1
  26       25       20 1
  27       19       26 1
  28       26       16 1
  29       26       27 1
  30       27       28 ar
  31       28       29 ar
  32       29       30 ar
  33       30       31 ar
  34       31       32 ar
  35       32       27 ar
  36       10       33 1
  37       33       34 2
  38       34        8 1
  39       34       35 1
  40       35       36 1
  41       36       37 1
  42       37       33 1
  43       13       38 1
  44        1       39 1
  45        1       40 1
  46        1       41 1
  47        3       42 1
  48        4       43 1
  49        5       44 1
  50        6       45 1
  51       21       46 1
  52       21       47 1
  53       22       48 1
  54       22       49 1
  55       24       50 1
  56       24       51 1
  57       25       52 1
  58       25       53 1
  59       28       54 1
  60       29       55 1
  61       30       56 1
  62       31       57 1
  63       32       58 1
  64       35       59 1
  65       35       60 1
  66       36       61 1
  67       36       62 1
  68       37       63 1
  69       37       64 1

@<TRIPOS>MOLECULE

  64   69
SMALL
USER_CHARGES
@<TRIPOS>ATOM
   1 C1           3.3874     1.6982    -2.4051 C.3          1    LIG   0.0000
   2 C2           4.1764     1.2727    -1.1772 C.ar         1    LIG   0.0000
   3 C3           5.5666     1.3144    -1.1950 C.ar         1    LIG   0.0000
   4 C4           6.2887     0.9246    -0.0713 C.ar         1    LIG   0.0000
   5 C5           5.6203     0.4940     1.0701 C.ar         1    LIG   0.0000
   6 C6           4.2300     0.4523     1.0878 C.ar         1    LIG   0.0000
   7 C7           3.5079     0.8422    -0.0355 C.ar         1    LIG   0.0000
   8 N8           2.1082     0.8009    -0.0173 N.pl3        1    LIG   0.0000
   9 N9           1.2846     1.8327    -0.0084 N.2          1    LIG   0.0000
  10 C10          0.0416     1.4125     0.0129 C.2          1    LIG   0.0000
  11 C11         -1.1331     2.2609     0.0084 C.2          1    LIG   0.0000
  12 O12         -2.2279     1.7700     0.0295 O.2          1    LIG   0.0000
  13 C13         -0.9787     3.7727    -0.0231 C.3          1    LIG   0.0000
  14 C14          0.1745     4.1831     0.8781 C.1          1    LIG   0.0000
  15 N15          1.0394     4.4909     1.5541 N.1          1    LIG   0.0000
  16 C16         -0.6943     4.2235    -1.4468 C.2          1    LIG   0.0000
  17 N17          0.3291     3.8607    -2.1838 N.2          1    LIG   0.0000
  18 N18          0.2526     4.4460    -3.3584 N.2          1    LIG   0.0000
  19 C19         -0.8221     5.1930    -3.3948 C.2          1    LIG   0.0000
  20 N20         -1.2457     5.9749    -4.4764 N.pl3        1    LIG   0.0000
  21 C21         -0.4447     5.9940    -5.7099 C.3          1    LIG   0.0000
  22 C22         -0.5251     7.3512    -6.3921 C.3          1    LIG   0.0000
  23 O23         -1.8662     7.8187    -6.4566 O.3          1    LIG   0.0000
  24 C24         -2.3758     8.0638    -5.1520 C.3          1    LIG   0.0000
  25 C25         -2.4714     6.7785    -4.3443 C.3          1    LIG   0.0000
  26 N26         -1.4465     5.0761    -2.1921 N.pl3        1    LIG   0.0000
  27 C27         -2.6333     5.7114    -1.8065 C.ar         1    LIG   0.0000
  28 C28         -2.5783     6.9582    -1.1922 C.ar         1    LIG   0.0000
  29 C29         -3.7621     7.5816    -0.8118 C.ar         1    LIG   0.0000
  30 C30         -4.9840     6.9586    -1.0470 C.ar         1    LIG   0.0000
  31 C31         -5.0295     5.7118    -1.6622 C.ar         1    LIG   0.0000
  32 C32         -3.8501     5.0810    -2.0452 C.ar         1    LIG   0.0000
  33 C33          0.0661     0.0021     0.0183 C.2          1    LIG   0.0000
  34 C34          1.3570    -0.3431    -0.0128 C.2          1    LIG   0.0000
  35 C35          1.4938    -1.8533    -0.0478 C.3          1    LIG   0.0000
  36 C36          0.1679    -2.3334     0.5226 C.3          1    LIG   0.0000
  37 C37         -0.7641    -1.2691    -0.0179 C.3          1    LIG   0.0000
  38 H           -1.8227     4.2008     0.2998 H            1    LIG   0.0000
  39 H            4.0199     1.9760    -3.1280 H            1    LIG   0.0000
  40 H            2.8307     0.9317    -2.7256 H            1    LIG   0.0000
  41 H            2.7924     2.4666    -2.1692 H            1    LIG   0.0000
  42 H            6.0471     1.6245    -2.0154 H            1    LIG   0.0000
  43 H            7.2882     0.9540    -0.0842 H            1    LIG   0.0000
  44 H            6.1393     0.2145     1.8779 H            1    LIG   0.0000
  45 H            3.7495     0.1419     1.9081 H            1    LIG   0.0000
  46 H           -0.7895     5.2932    -6.3345 H            1    LIG   0.0000
  47 H            0.5094     5.7981    -5.4832 H            1    LIG   0.0000
  48 H            0.0244     8.0082    -5.8760 H            1    LIG   0.0000
  49 H           -0.1632     7.2708    -7.3209 H            1    LIG   0.0000
  50 H           -3.2870     8.4683    -5.2292 H            1    LIG   0.0000
  51 H           -1.7672     8.7010    -4.6791 H            1    LIG   0.0000
  52 H           -2.6086     7.0081    -3.3808 H            1    LIG   0.0000
  53 H           -3.2493     6.2433    -4.6736 H            1    LIG   0.0000
  54 H           -1.6975     7.4014    -1.0259 H            1    LIG   0.0000
  55 H           -3.7351     8.4779    -0.3692 H            1    LIG   0.0000
  56 H           -5.8333     7.4093    -0.7724 H            1    LIG   0.0000
  57 H           -5.9103     5.2687    -1.8292 H            1    LIG   0.0000
  58 H           -3.8768     4.1843    -2.4872 H            1    LIG   0.0000
  59 H            2.2595    -2.1575     0.5188 H            1    LIG   0.0000
  60 H            1.6212    -2.1805    -0.9841 H            1    LIG   0.0000
  61 H            0.1776    -2.3429     1.5225 H            1    LIG   0.0000
  62 H           -0.0729    -3.2426     0.1829 H            1    LIG   0.0000
  63 H           -1.0439    -1.4840    -0.9536 H            1    LIG   0.0000
  64 H           -1.5750    -1.1803     0.5605 H            1    LIG   0.0000
@<TRIPOS>BOND
   1        1        2 1
   2        2        3 ar
   3        3        4 ar
   4        4        5 ar
   5        5        6 ar
   6        6        7 ar
   7        7        2 ar
   8        7        8 1
   9        8        9 1
  10        9       10 2
  11       10       11 1
  12       11       12 2
  13       11       13 1
  14       13       14 1
  15       14       15 3
  16       13       16 1
  17       16       17 2
  18       17       18 1
  19       18       19 2
  20       19       20 1
  21       20       21 1
  22       21       22 1
  23       22       23 1
  24       23       24 1
  25       24       25 1
  26       25       20 1
  27       19       26 1
  28       26       16 1
  29       26       27 1
  30       27       28 ar
  31       28       29 ar
  32       29       30 ar
  33       30       31 ar
  34       31       32 ar
  35       32       27 ar
  36       10       33 1
  37       33       34 2
  38       34        8 1
  39       34       35 1
  40       35       36 1
  41       36       37 1
  42       37       33 1
  43       13       38 1
  44        1       39 1
  45        1       40 1
  46        1       41 1
  47        3       42 1
  48        4       43 1
  49        5       44 1
  50        6       45 1
  51       21       46 1
  52       21       47 1
  53       22       48 1
  54       22       49 1
  55       24       50 1
  56       24       51 1
  57       25       52 1
  58       25       53 1
  59       28       54 1
  60       29       55 1
  61       30       56 1
  62       31       57 1
  63       32       58 1
  64       35       59 1
  65       35       60 1
  66       36       61 1
  67       36       62 1
  68       37       63 1
  69       37       64 1

@<TRIPOS>MOLECULE

  64   69
SMALL
USER_CHARGES
@<TRIPOS>ATOM
   1 C1           3.4486     1.7065     2.3334 C.3          1    LIG   0.0000
   2 C2           4.2057     1.2766     1.0871 C.ar         1    LIG   0.0000
   3 C3           5.5959     1.3170     1.0693 C.ar         1    LIG   0.0000
   4 C4           6.2887     0.9239    -0.0716 C.ar         1    LIG   0.0000
   5 C5           5.5911     0.4898    -1.1939 C.ar         1    LIG   0.0000
   6 C6           4.2007     0.4495    -1.1761 C.ar         1    LIG   0.0000
   7 C7           3.5079     0.8422    -0.0355 C.ar         1    LIG   0.0000
   8 N8           2.1082     0.8009    -0.0173 N.pl3        1    LIG   0.0000
   9 N9           1.2846     1.8327    -0.0084 N.2          1    LIG   0.0000
  10 C10          0.0416     1.4125     0.0129 C.2          1    LIG   0.0000
  11 C11         -1.1331     2.2609     0.0084 C.2          1    LIG   0.0000
  12 O12         -2.2279     1.7700     0.0295 O.2          1    LIG   0.0000
  13 C13         -0.9787     3.7727    -0.0231 C.3          1    LIG   0.0000
  14 C14          0.1745     4.1831     0.8781 C.1          1    LIG   0.0000
  15 N15          1.0394     4.4909     1.5541 N.1          1    LIG   0.0000
  16 C16         -0.6943     4.2235    -1.4468 C.2          1    LIG   0.0000
  17 N17          0.3291     3.8607    -2.1838 N.2          1    LIG   0.0000
  18 N18          0.2526     4.4460    -3.3584 N.2          1    LIG   0.0000
  19 C19         -0.8221     5.1930    -3.3948 C.2          1    LIG   0.0000
  20 N20         -1.2457     5.9749    -4.4764 N.pl3        1    LIG   0.0000
  21 C21         -0.4447     5.9940    -5.7099 C.3          1    LIG   0.0000
  22 C22         -0.5251     7.3512    -6.3921 C.3          1    LIG   0.0000
  23 O23         -1.8662     7.8187    -6.4566 O.3          1    LIG   0.0000
  24 C24         -2.3758     8.0638    -5.1520 C.3          1    LIG   0.0000
  25 C25         -2.4714     6.7785    -4.3443 C.3          1    LIG   0.0000
  26 N26         -1.4465     5.0761    -2.1921 N.pl3        1    LIG   0.0000
  27 C27         -2.6333     5.7114    -1.8065 C.ar         1    LIG   0.0000
  28 C28         -2.5783     6.9582    -1.1922 C.ar         1    LIG   0.0000
  29 C29         -3.7621     7.5816    -0.8118 C.ar         1    LIG   0.0000
  30 C30         -4.9840     6.9586    -1.0470 C.ar         1    LIG   0.0000
  31 C31         -5.0295     5.7118    -1.6622 C.ar         1    LIG   0.0000
  32 C32         -3.8501     5.0810    -2.0452 C.ar         1    LIG   0.0000
  33 C33          0.0661     0.0021     0.0183 C.2          1    LIG   0.0000
  34 C34          1.3570    -0.3431    -0.0128 C.2          1    LIG   0.0000
  35 C35          1.4938    -1.8533    -0.0478 C.3          1    LIG   0.0000
  36 C36          0.1679    -2.3334     0.5226 C.3          1    LIG   0.0000
  37 C37         -0.7641    -1.2691    -0.0179 C.3          1    LIG   0.0000
  38 H           -1.8227     4.2008     0.2998 H            1    LIG   0.0000
  39 H            4.0997     1.9867     3.0389 H            1    LIG   0.0000
  40 H            2.8479     2.4742     2.1103 H            1    LIG   0.0000
  41 H            2.9003     0.9413     2.6709 H            1    LIG   0.0000
  42 H            6.0975     1.6285     1.8764 H            1    LIG   0.0000
  43 H            7.2882     0.9535    -0.0847 H            1    LIG   0.0000
  44 H            6.0890     0.2067    -2.0136 H            1    LIG   0.0000
  45 H            3.6991     0.1382    -1.9833 H            1    LIG   0.0000
  46 H           -0.7895     5.2932    -6.3345 H            1    LIG   0.0000
  47 H            0.5094     5.7981    -5.4832 H            1    LIG   0.0000
  48 H            0.0244     8.0082    -5.8760 H            1    LIG   0.0000
  49 H           -0.1632     7.2708    -7.3209 H            1    LIG   0.0000
  50 H           -3.2870     8.4683    -5.2292 H            1    LIG   0.0000
  51 H           -1.7672     8.7010    -4.6791 H            1    LIG   0.0000
  52 H           -2.6086     7.0081    -3.3808 H            1    LIG   0.0000
  53 H           -3.2493     6.2433    -4.6736 H            1    LIG   0.0000
  54 H           -1.6975     7.4014    -1.0259 H            1    LIG   0.0000
  55 H           -3.7351     8.4779    -0.3692 H            1    LIG   0.0000
  56 H           -5.8333     7.4093    -0.7724 H            1    LIG   0.0000
  57 H           -5.9103     5.2687    -1.8292 H            1    LIG   0.0000
  58 H           -3.8768     4.1843    -2.4872 H            1    LIG   0.0000
  59 H            2.2595    -2.1575     0.5188 H            1    LIG   0.0000
  60 H            1.6212    -2.1805    -0.9841 H            1    LIG   0.0000
  61 H            0.1776    -2.3429     1.5225 H            1    LIG   0.0000
  62 H           -0.0729    -3.2426     0.1829 H            1    LIG   0.0000
  63 H           -1.0439    -1.4840    -0.9536 H            1    LIG   0.0000
  64 H           -1.5750    -1.1803     0.5605 H            1    LIG   0.0000
@<TRIPOS>BOND
   1        1        2 1
   2        2        3 ar
   3        3        4 ar
   4        4        5 ar
   5        5        6 ar
   6        6        7 ar
   7        7        2 ar
   8        7        8 1
   9        8        9 1
  10        9       10 2
  11       10       11 1
  12       11       12 2
  13       11       13 1
  14       13       14 1
  15       14       15 3
  16       13       16 1
  17       16       17 2
  18       17       18 1
  19       18       19 2
  20       19       20 1
  21       20       21 1
  22       21       22 1
  23       22       23 1
  24       23       24 1
  25       24       25 1
  26       25       20 1
  27       19       26 1
  28       26       16 1
  29       26       27 1
  30       27       28 ar
  31       28       29 ar
  32       29       30 ar
  33       30       31 ar
  34       31       32 ar
  35       32       27 ar
  36       10       33 1
  37       33       34 2
  38       34        8 1
  39       34       35 1
  40       35       36 1
  41       36       37 1
  42       37       33 1
  43       13       38 1
  44        1       39 1
  45        1       40 1
  46        1       41 1
  47        3       42 1
  48        4       43 1
  49        5       44 1
  50        6       45 1
  51       21       46 1
  52       21       47 1
  53       22       48 1
  54       22       49 1
  55       24       50 1
  56       24       51 1
  57       25       52 1
  58       25       53 1
  59       28       54 1
  60       29       55 1
  61       30       56 1
  62       31       57 1
  63       32       58 1
  64       35       59 1
  65       35       60 1
  66       36       61 1
  67       36       62 1
  68       37       63 1
  69       37       64 1

@<TRIPOS>MOLECULE

  64   69
SMALL
USER_CHARGES
@<TRIPOS>ATOM
   1 C1           3.3874     1.6982    -2.4051 C.3          1    LIG   0.0000
   2 C2           4.1764     1.2727    -1.1772 C.ar         1    LIG   0.0000
   3 C3           5.5666     1.3144    -1.1950 C.ar         1    LIG   0.0000
   4 C4           6.2887     0.9246    -0.0713 C.ar         1    LIG   0.0000
   5 C5           5.6203     0.4940     1.0701 C.ar         1    LIG   0.0000
   6 C6           4.2300     0.4523     1.0878 C.ar         1    LIG   0.0000
   7 C7           3.5079     0.8422    -0.0355 C.ar         1    LIG   0.0000
   8 N8           2.1082     0.8009    -0.0173 N.pl3        1    LIG   0.0000
   9 N9           1.2846     1.8327    -0.0084 N.2          1    LIG   0.0000
  10 C10          0.0416     1.4125     0.0129 C.2          1    LIG   0.0000
  11 C11         -1.1331     2.2609     0.0084 C.2          1    LIG   0.0000
  12 O12         -2.2279     1.7700     0.0295 O.2          1    LIG   0.0000
  13 C13         -0.9787     3.7727    -0.0231 C.3          1    LIG   0.0000
  14 C14         -2.2719     4.4041    -0.5123 C.1          1    LIG   0.0000
  15 N15         -3.2418     4.8776    -0.8793 N.1          1    LIG   0.0000
  16 C16         -0.6649     4.2792     1.3754 C.2          1    LIG   0.0000
  17 N17         -1.4209     4.1358     2.4384 N.2          1    LIG   0.0000
  18 N18         -0.8356     4.6994     3.4718 N.2          1    LIG   0.0000
  19 C19          0.3065     5.2127     3.0890 C.2          1    LIG   0.0000
  20 N20          1.2162     5.8979     3.9037 N.pl3        1    LIG   0.0000
  21 C21          0.9077     6.0857     5.3295 C.3          1    LIG   0.0000
  22 C22          1.4730     7.4018     5.8416 C.3          1    LIG   0.0000
  23 O23          2.8168     7.5875     5.4164 O.3          1    LIG   0.0000
  24 C24          2.8828     7.7172     4.0021 C.3          1    LIG   0.0000
  25 C25          2.4497     6.4350     3.3077 C.3          1    LIG   0.0000
  26 N26          0.4446     4.9651     1.7587 N.pl3        1    LIG   0.0000
  27 C27          1.5233     5.3441     0.9503 C.ar         1    LIG   0.0000
  28 C28          1.4969     6.5729     0.2989 C.ar         1    LIG   0.0000
  29 C29          2.5724     6.9409    -0.5027 C.ar         1    LIG   0.0000
  30 C30          3.6594     6.0838    -0.6460 C.ar         1    LIG   0.0000
  31 C31          3.6774     4.8570     0.0094 C.ar         1    LIG   0.0000
  32 C32          2.6054     4.4809     0.8126 C.ar         1    LIG   0.0000
  33 C33          0.0661     0.0021     0.0183 C.2          1    LIG   0.0000
  34 C34          1.3570    -0.3431    -0.0128 C.2          1    LIG   0.0000
  35 C35          1.4938    -1.8533    -0.0478 C.3          1    LIG   0.0000
  36 C36          0.1679    -2.3334     0.5226 C.3          1    LIG   0.0000
  37 C37         -0.7641    -1.2691    -0.0179 C.3          1    LIG   0.0000
  38 H           -0.2327     4.0188    -0.6419 H            1    LIG   0.0000
  39 H            4.0199     1.9760    -3.1280 H            1    LIG   0.0000
  40 H            2.8307     0.9317    -2.7256 H            1    LIG   0.0000
  41 H            2.7924     2.4666    -2.1692 H            1    LIG   0.0000
  42 H            6.0471     1.6245    -2.0154 H            1    LIG   0.0000
  43 H            7.2882     0.9540    -0.0842 H            1    LIG   0.0000
  44 H            6.1393     0.2145     1.8779 H            1    LIG   0.0000
  45 H            3.7495     0.1419     1.9081 H            1    LIG   0.0000
  46 H            1.3075     5.3328     5.8524 H            1    LIG   0.0000
  47 H           -0.0847     6.0865     5.4520 H            1    LIG   0.0000
  48 H            0.9141     8.1540     5.4926 H            1    LIG   0.0000
  49 H            1.4447     7.4014     6.8412 H            1    LIG   0.0000
  50 H            3.8238     7.9286     3.7380 H            1    LIG   0.0000
  51 H            2.2806     8.4622     3.7150 H            1    LIG   0.0000
  52 H            2.2877     6.6269     2.3398 H            1    LIG   0.0000
  53 H            3.1774     5.7547     3.3953 H            1    LIG   0.0000
  54 H            0.7133     7.1849     0.4056 H            1    LIG   0.0000
  55 H            2.5646     7.8217    -0.9761 H            1    LIG   0.0000
  56 H            4.4312     6.3512    -1.2229 H            1    LIG   0.0000
  57 H            4.4612     4.2451    -0.0967 H            1    LIG   0.0000
  58 H            2.6127     3.5999     1.2855 H            1    LIG   0.0000
  59 H            2.2595    -2.1575     0.5188 H            1    LIG   0.0000
  60 H            1.6212    -2.1805    -0.9841 H            1    LIG   0.0000
  61 H            0.1776    -2.3429     1.5225 H            1    LIG   0.0000
  62 H           -0.0729    -3.2426     0.1829 H            1    LIG   0.0000
  63 H           -1.0439    -1.4840    -0.9536 H            1    LIG   0.0000
  64 H           -1.5750    -1.1803     0.5605 H            1    LIG   0.0000
@<TRIPOS>BOND
   1        1        2 1
   2        2        3 ar
   3        3        4 ar
   4        4        5 ar
   5        5        6 ar
   6        6        7 ar
   7        7        2 ar
   8        7        8 1
   9        8        9 1
  10        9       10 2
  11       10       11 1
  12       11       12 2
  13       11       13 1
  14       13       14 1
  15       14       15 3
  16       13       16 1
  17       16       17 2
  18       17       18 1
  19       18       19 2
  20       19       20 1
  21       20       21 1
  22       21       22 1
  23       22       23 1
  24       23       24 1
  25       24       25 1
  26       25       20 1
  27       19       26 1
  28       26       16 1
  29       26       27 1
  30       27       28 ar
  31       28       29 ar
  32       29       30 ar
  33       30       31 ar
  34       31       32 ar
  35       32       27 ar
  36       10       33 1
  37       33       34 2
  38       34        8 1
  39       34       35 1
  40       35       36 1
  41       36       37 1
  42       37       33 1
  43       13       38 1
  44        1       39 1
  45        1       40 1
  46        1       41 1
  47        3       42 1
  48        4       43 1
  49        5       44 1
  50        6       45 1
  51       21       46 1
  52       21       47 1
  53       22       48 1
  54       22       49 1
  55       24       50 1
  56       24       51 1
  57       25       52 1
  58       25       53 1
  59       28       54 1
  60       29       55 1
  61       30       56 1
  62       31       57 1
  63       32       58 1
  64       35       59 1
  65       35       60 1
  66       36       61 1
  67       36       62 1
  68       37       63 1
  69       37       64 1

