@<TRIPOS>MOLECULE
*****
 64 69 0 0 0
SMALL
USER_CHARGES

@<TRIPOS>ATOM
      1 C1          3.4486    1.7065    2.3334 C.3     1  LIG1        0.0000
      2 C2          4.2057    1.2766    1.0871 C.3     1  LIG1        0.0000
      3 C3          5.5959    1.3170    1.0693 C.3     1  LIG1        0.0000
      4 C4          6.2887    0.9239   -0.0716 C.3     1  LIG1        0.0000
      5 C5          5.5911    0.4898   -1.1939 C.3     1  LIG1        0.0000
      6 C6          4.2007    0.4495   -1.1761 C.3     1  LIG1        0.0000
      7 C7          3.5079    0.8422   -0.0355 C.3     1  LIG1        0.0000
      8 N8          2.1082    0.8009   -0.0173 N.pl3   1  LIG1        0.0000
      9 N9          1.2846    1.8327   -0.0084 N.2     1  LIG1        0.0000
     10 C10         0.0416    1.4125    0.0129 C.2     1  LIG1        0.0000
     11 C11        -1.1331    2.2609    0.0084 C.2     1  LIG1        0.0000
     12 O12        -2.2279    1.7700    0.0295 O.2     1  LIG1        0.0000
     13 C13        -0.9787    3.7727   -0.0231 C.3     1  LIG1        0.0000
     14 C14         0.1745    4.1831    0.8781 C.1     1  LIG1        0.0000
     15 N15         1.0394    4.4909    1.5541 N.1     1  LIG1        0.0000
     16 C16        -0.6943    4.2235   -1.4468 C.2     1  LIG1        0.0000
     17 N17         0.3291    3.8607   -2.1838 N.2     1  LIG1        0.0000
     18 N18         0.2526    4.4460   -3.3584 N.2     1  LIG1        0.0000
     19 C19        -0.8221    5.1930   -3.3948 C.cat   1  LIG1        0.0000
     20 N20        -1.2457    5.9749   -4.4764 N.pl3   1  LIG1        0.0000
     21 C21        -0.4447    5.9940   -5.7099 C.3     1  LIG1        0.0000
     22 C22        -0.5251    7.3512   -6.3921 C.3     1  LIG1        0.0000
     23 O23        -1.8662    7.8187   -6.4566 O.3     1  LIG1        0.0000
     24 C24        -2.3758    8.0638   -5.1520 C.3     1  LIG1        0.0000
     25 C25        -2.4714    6.7785   -4.3443 C.3     1  LIG1        0.0000
     26 N26        -1.4465    5.0761   -2.1921 N.pl3   1  LIG1        0.0000
     27 C27        -2.6333    5.7114   -1.8065 C.3     1  LIG1        0.0000
     28 C28        -2.5783    6.9582   -1.1922 C.3     1  LIG1        0.0000
     29 C29        -3.7621    7.5816   -0.8118 C.3     1  LIG1        0.0000
     30 C30        -4.9840    6.9586   -1.0470 C.3     1  LIG1        0.0000
     31 C31        -5.0295    5.7118   -1.6622 C.3     1  LIG1        0.0000
     32 C32        -3.8501    5.0810   -2.0452 C.3     1  LIG1        0.0000
     33 C33         0.0661    0.0021    0.0183 C.2     1  LIG1        0.0000
     34 C34         1.3570   -0.3431   -0.0128 C.2     1  LIG1        0.0000
     35 C35         1.4938   -1.8533   -0.0478 C.3     1  LIG1        0.0000
     36 C36         0.1679   -2.3334    0.5226 C.3     1  LIG1        0.0000
     37 C37        -0.7641   -1.2691   -0.0179 C.3     1  LIG1        0.0000
     38 H          -1.8227    4.2008    0.2998 H       1  LIG1        0.0000
     39 H           4.0997    1.9867    3.0389 H       1  LIG1        0.0000
     40 H           2.8479    2.4742    2.1103 H       1  LIG1        0.0000
     41 H           2.9003    0.9413    2.6709 H       1  LIG1        0.0000
     42 H           6.0975    1.6285    1.8764 H       1  LIG1        0.0000
     43 H           7.2882    0.9535   -0.0847 H       1  LIG1        0.0000
     44 H           6.0890    0.2067   -2.0136 H       1  LIG1        0.0000
     45 H           3.6991    0.1382   -1.9833 H       1  LIG1        0.0000
     46 H          -0.7895    5.2932   -6.3345 H       1  LIG1        0.0000
     47 H           0.5094    5.7981   -5.4832 H       1  LIG1        0.0000
     48 H           0.0244    8.0082   -5.8760 H       1  LIG1        0.0000
     49 H          -0.1632    7.2708   -7.3209 H       1  LIG1        0.0000
     50 H          -3.2870    8.4683   -5.2292 H       1  LIG1        0.0000
     51 H          -1.7672    8.7010   -4.6791 H       1  LIG1        0.0000
     52 H          -2.6086    7.0081   -3.3808 H       1  LIG1        0.0000
     53 H          -3.2493    6.2433   -4.6736 H       1  LIG1        0.0000
     54 H          -1.6975    7.4014   -1.0259 H       1  LIG1        0.0000
     55 H          -3.7351    8.4779   -0.3692 H       1  LIG1        0.0000
     56 H          -5.8333    7.4093   -0.7724 H       1  LIG1        0.0000
     57 H          -5.9103    5.2687   -1.8292 H       1  LIG1        0.0000
     58 H          -3.8768    4.1843   -2.4872 H       1  LIG1        0.0000
     59 H           2.2595   -2.1575    0.5188 H       1  LIG1        0.0000
     60 H           1.6212   -2.1805   -0.9841 H       1  LIG1        0.0000
     61 H           0.1776   -2.3429    1.5225 H       1  LIG1        0.0000
     62 H          -0.0729   -3.2426    0.1829 H       1  LIG1        0.0000
     63 H          -1.0439   -1.4840   -0.9536 H       1  LIG1        0.0000
     64 H          -1.5750   -1.1803    0.5605 H       1  LIG1        0.0000
@<TRIPOS>BOND
     1     1     2    1
     2     2     3   ar
     3     3     4   ar
     4     4     5   ar
     5     5     6   ar
     6     6     7   ar
     7     7     2   ar
     8     7     8    1
     9     8     9    1
    10     9    10    2
    11    10    11    1
    12    11    12    2
    13    11    13    1
    14    13    14    1
    15    14    15    3
    16    13    16    1
    17    16    17    2
    18    17    18    1
    19    18    19    2
    20    19    20    1
    21    20    21    1
    22    21    22    1
    23    22    23    1
    24    23    24    1
    25    24    25    1
    26    25    20    1
    27    19    26    1
    28    26    16    1
    29    26    27    1
    30    27    28   ar
    31    28    29   ar
    32    29    30   ar
    33    30    31   ar
    34    31    32   ar
    35    32    27   ar
    36    10    33    1
    37    33    34    2
    38    34     8    1
    39    34    35    1
    40    35    36    1
    41    36    37    1
    42    37    33    1
    43    13    38    1
    44     1    39    1
    45     1    40    1
    46     1    41    1
    47     3    42    1
    48     4    43    1
    49     5    44    1
    50     6    45    1
    51    21    46    1
    52    21    47    1
    53    22    48    1
    54    22    49    1
    55    24    50    1
    56    24    51    1
    57    25    52    1
    58    25    53    1
    59    28    54    1
    60    29    55    1
    61    30    56    1
    62    31    57    1
    63    32    58    1
    64    35    59    1
    65    35    60    1
    66    36    61    1
    67    36    62    1
    68    37    63    1
    69    37    64    1
