@<TRIPOS>MOLECULE
*****
 64 69 0 0 0
SMALL
USER_CHARGES

@<TRIPOS>ATOM
      1 C1          3.4653   -0.4372    2.1759 C.3     1  LIG1        0.0000
      2 C2          4.2152    0.2585    1.0512 C.3     1  LIG1        0.0000
      3 C3          5.6054    0.3022    1.0651 C.3     1  LIG1        0.0000
      4 C4          6.2917    0.9394    0.0358 C.3     1  LIG1        0.0000
      5 C5          5.5875    1.5318   -1.0073 C.3     1  LIG1        0.0000
      6 C6          4.1972    1.4880   -1.0211 C.3     1  LIG1        0.0000
      7 C7          3.5109    0.8509    0.0077 C.3     1  LIG1        0.0000
      8 N8          2.1113    0.8062   -0.0066 N.pl3   1  LIG1        0.0000
      9 N9          1.2840    1.8342   -0.0025 N.2     1  LIG1        0.0000
     10 C10         0.0364    1.4291   -0.0215 C.2     1  LIG1        0.0000
     11 C11        -1.1421    2.2737   -0.0127 C.2     1  LIG1        0.0000
     12 O12        -1.0245    3.4676    0.0142 O.2     1  LIG1        0.0000
     13 C13        -2.5266    1.6468   -0.0377 C.3     1  LIG1        0.0000
     14 C14        -2.7025    0.7583    1.1829 C.1     1  LIG1        0.0000
     15 N15        -2.8345    0.0918    2.0984 N.1     1  LIG1        0.0000
     16 C16        -3.5796    2.7431   -0.0225 C.2     1  LIG1        0.0000
     17 N17        -3.7412    3.6482    0.9139 N.2     1  LIG1        0.0000
     18 N18        -4.7476    4.4322    0.5967 N.2     1  LIG1        0.0000
     19 C19        -5.2476    4.0436   -0.5493 C.cat   1  LIG1        0.0000
     20 N20        -6.3315    4.6281   -1.2160 N.pl3   1  LIG1        0.0000
     21 C21        -6.7729    4.0690   -2.5029 C.3     1  LIG1        0.0000
     22 C22        -7.3158    5.1593   -3.4142 C.3     1  LIG1        0.0000
     23 O23        -8.2066    6.0201   -2.7165 O.3     1  LIG1        0.0000
     24 C24        -7.5183    6.7384   -1.7007 C.3     1  LIG1        0.0000
     25 C25        -6.9887    5.8039   -0.6237 C.3     1  LIG1        0.0000
     26 N26        -4.5285    2.9683   -0.9696 N.pl3   1  LIG1        0.0000
     27 C27        -4.7312    2.2426   -2.1499 C.3     1  LIG1        0.0000
     28 C28        -5.5891    1.1477   -2.1460 C.3     1  LIG1        0.0000
     29 C29        -5.7840    0.4323   -3.3228 C.3     1  LIG1        0.0000
     30 C30        -5.1246    0.8142   -4.4872 C.3     1  LIG1        0.0000
     31 C31        -4.2686    1.9107   -4.4820 C.3     1  LIG1        0.0000
     32 C32        -4.0676    2.6314   -3.3090 C.3     1  LIG1        0.0000
     33 C33         0.0761    0.0096    0.0018 C.2     1  LIG1        0.0000
     34 C34         1.3749   -0.3403   -0.0012 C.2     1  LIG1        0.0000
     35 C35         1.5154   -1.8490   -0.0030 C.3     1  LIG1        0.0000
     36 C36         0.1703   -2.3503   -0.4743 C.3     1  LIG1        0.0000
     37 C37        -0.7459   -1.2623    0.0357 C.3     1  LIG1        0.0000
     38 H          -2.6290    1.0978   -0.8672 H       1  LIG1        0.0000
     39 H           4.1205   -0.8042    2.8363 H       1  LIG1        0.0000
     40 H           2.8646    0.2193    2.6320 H       1  LIG1        0.0000
     41 H           2.9177   -1.1843    1.7992 H       1  LIG1        0.0000
     42 H           6.1116   -0.1242    1.8146 H       1  LIG1        0.0000
     43 H           7.2911    0.9714    0.0460 H       1  LIG1        0.0000
     44 H           6.0807    1.9891   -1.7473 H       1  LIG1        0.0000
     45 H           3.6909    1.9146   -1.7706 H       1  LIG1        0.0000
     46 H          -7.4917    3.3939   -2.3367 H       1  LIG1        0.0000
     47 H          -5.9963    3.6256   -2.9503 H       1  LIG1        0.0000
     48 H          -6.5516    5.6987   -3.7677 H       1  LIG1        0.0000
     49 H          -7.8041    4.7337   -4.1761 H       1  LIG1        0.0000
     50 H          -8.1471    7.3939   -1.2824 H       1  LIG1        0.0000
     51 H          -6.7503    7.2291   -2.1123 H       1  LIG1        0.0000
     52 H          -6.3270    6.2979   -0.0597 H       1  LIG1        0.0000
     53 H          -7.7510    5.4986   -0.0530 H       1  LIG1        0.0000
     54 H          -6.0606    0.8779   -1.3064 H       1  LIG1        0.0000
     55 H          -6.3982   -0.3568   -3.3321 H       1  LIG1        0.0000
     56 H          -5.2667    0.2978   -5.3317 H       1  LIG1        0.0000
     57 H          -3.7976    2.1810   -5.3217 H       1  LIG1        0.0000
     58 H          -3.4528    3.4201   -3.2993 H       1  LIG1        0.0000
     59 H           1.7167   -2.1868    0.9165 H       1  LIG1        0.0000
     60 H           2.2397   -2.1363   -0.6297 H       1  LIG1        0.0000
     61 H          -0.0527   -3.2368   -0.0687 H       1  LIG1        0.0000
     62 H           0.1349   -2.4215   -1.4711 H       1  LIG1        0.0000
     63 H          -1.5480   -1.1757   -0.5552 H       1  LIG1        0.0000
     64 H          -1.0403   -1.4631    0.9700 H       1  LIG1        0.0000
@<TRIPOS>BOND
     1     1     2    1
     2     2     3   ar
     3     3     4   ar
     4     4     5   ar
     5     5     6   ar
     6     6     7   ar
     7     7     2   ar
     8     7     8    1
     9     8     9    1
    10     9    10    2
    11    10    11    1
    12    11    12    2
    13    11    13    1
    14    13    14    1
    15    14    15    3
    16    13    16    1
    17    16    17    2
    18    17    18    1
    19    18    19    2
    20    19    20    1
    21    20    21    1
    22    21    22    1
    23    22    23    1
    24    23    24    1
    25    24    25    1
    26    25    20    1
    27    19    26    1
    28    26    16    1
    29    26    27    1
    30    27    28   ar
    31    28    29   ar
    32    29    30   ar
    33    30    31   ar
    34    31    32   ar
    35    32    27   ar
    36    10    33    1
    37    33    34    2
    38    34     8    1
    39    34    35    1
    40    35    36    1
    41    36    37    1
    42    37    33    1
    43    13    38    1
    44     1    39    1
    45     1    40    1
    46     1    41    1
    47     3    42    1
    48     4    43    1
    49     5    44    1
    50     6    45    1
    51    21    46    1
    52    21    47    1
    53    22    48    1
    54    22    49    1
    55    24    50    1
    56    24    51    1
    57    25    52    1
    58    25    53    1
    59    28    54    1
    60    29    55    1
    61    30    56    1
    62    31    57    1
    63    32    58    1
    64    35    59    1
    65    35    60    1
    66    36    61    1
    67    36    62    1
    68    37    63    1
    69    37    64    1
