@<TRIPOS>MOLECULE
*****
 64 69 0 0 0
SMALL
USER_CHARGES

@<TRIPOS>ATOM
      1 C1          3.4653   -0.4372    2.1759 C.3     1  LIG1        0.0000
      2 C2          4.2152    0.2585    1.0512 C.3     1  LIG1        0.0000
      3 C3          5.6054    0.3022    1.0651 C.3     1  LIG1        0.0000
      4 C4          6.2917    0.9394    0.0358 C.3     1  LIG1        0.0000
      5 C5          5.5875    1.5318   -1.0073 C.3     1  LIG1        0.0000
      6 C6          4.1972    1.4880   -1.0211 C.3     1  LIG1        0.0000
      7 C7          3.5109    0.8509    0.0077 C.3     1  LIG1        0.0000
      8 N8          2.1113    0.8062   -0.0066 N.pl3   1  LIG1        0.0000
      9 N9          1.2840    1.8342   -0.0025 N.2     1  LIG1        0.0000
     10 C10         0.0364    1.4291   -0.0215 C.2     1  LIG1        0.0000
     11 C11        -1.1421    2.2737   -0.0127 C.2     1  LIG1        0.0000
     12 O12        -2.2351    1.7788   -0.0325 O.2     1  LIG1        0.0000
     13 C13        -0.9931    3.7860    0.0214 C.3     1  LIG1        0.0000
     14 C14         0.1415    4.1622    0.9603 C.1     1  LIG1        0.0000
     15 N15         0.9925    4.4444    1.6645 N.1     1  LIG1        0.0000
     16 C16        -0.6842    4.2964   -1.3768 C.2     1  LIG1        0.0000
     17 N17         0.3541    3.9679   -2.1089 N.2     1  LIG1        0.0000
     18 N18         0.2971    4.6012   -3.2595 N.2     1  LIG1        0.0000
     19 C19        -0.7797    5.3456   -3.2850 C.cat   1  LIG1        0.0000
     20 N20        -1.1863    6.1705   -4.3410 N.pl3   1  LIG1        0.0000
     21 C21        -2.4287    6.9471   -4.2120 C.3     1  LIG1        0.0000
     22 C22        -3.1159    7.1054   -5.5598 C.3     1  LIG1        0.0000
     23 O23        -2.1906    7.4841   -6.5705 O.3     1  LIG1        0.0000
     24 C24        -1.2397    6.4508   -6.7936 C.3     1  LIG1        0.0000
     25 C25        -0.3719    6.2224   -5.5655 C.3     1  LIG1        0.0000
     26 N26        -1.4259    5.1768   -2.1000 N.pl3   1  LIG1        0.0000
     27 C27        -2.6221    5.7918   -1.7107 C.3     1  LIG1        0.0000
     28 C28        -2.5835    7.0122   -1.0442 C.3     1  LIG1        0.0000
     29 C29        -3.7766    7.6155   -0.6605 C.3     1  LIG1        0.0000
     30 C30        -4.9914    6.9988   -0.9441 C.3     1  LIG1        0.0000
     31 C31        -5.0205    5.7785   -1.6113 C.3     1  LIG1        0.0000
     32 C32        -3.8317    5.1679   -1.9980 C.3     1  LIG1        0.0000
     33 C33         0.0761    0.0096    0.0018 C.2     1  LIG1        0.0000
     34 C34         1.3749   -0.3403   -0.0012 C.2     1  LIG1        0.0000
     35 C35         1.5154   -1.8490   -0.0030 C.3     1  LIG1        0.0000
     36 C36         0.1703   -2.3503   -0.4743 C.3     1  LIG1        0.0000
     37 C37        -0.7459   -1.2623    0.0357 C.3     1  LIG1        0.0000
     38 H          -1.8447    4.1976    0.3459 H       1  LIG1        0.0000
     39 H           4.1205   -0.8042    2.8363 H       1  LIG1        0.0000
     40 H           2.8646    0.2193    2.6320 H       1  LIG1        0.0000
     41 H           2.9177   -1.1843    1.7992 H       1  LIG1        0.0000
     42 H           6.1116   -0.1242    1.8146 H       1  LIG1        0.0000
     43 H           7.2911    0.9714    0.0460 H       1  LIG1        0.0000
     44 H           6.0807    1.9891   -1.7473 H       1  LIG1        0.0000
     45 H           3.6909    1.9146   -1.7706 H       1  LIG1        0.0000
     46 H          -2.2118    7.8527   -3.8473 H       1  LIG1        0.0000
     47 H          -3.0463    6.4740   -3.5837 H       1  LIG1        0.0000
     48 H          -3.5381    6.2353   -5.8143 H       1  LIG1        0.0000
     49 H          -3.8223    7.8093   -5.4846 H       1  LIG1        0.0000
     50 H          -0.6544    6.7076   -7.5627 H       1  LIG1        0.0000
     51 H          -1.7245    5.6039   -7.0118 H       1  LIG1        0.0000
     52 H           0.1178    5.3566   -5.6685 H       1  LIG1        0.0000
     53 H           0.2868    6.9707   -5.4877 H       1  LIG1        0.0000
     54 H          -1.7076    7.4509   -0.8432 H       1  LIG1        0.0000
     55 H          -3.7613    8.4927   -0.1807 H       1  LIG1        0.0000
     56 H          -5.8475    7.4350   -0.6670 H       1  LIG1        0.0000
     57 H          -5.8963    5.3399   -1.8130 H       1  LIG1        0.0000
     58 H          -3.8467    4.2903   -2.4772 H       1  LIG1        0.0000
     59 H           1.7167   -2.1868    0.9165 H       1  LIG1        0.0000
     60 H           2.2397   -2.1363   -0.6297 H       1  LIG1        0.0000
     61 H          -0.0527   -3.2368   -0.0687 H       1  LIG1        0.0000
     62 H           0.1349   -2.4215   -1.4711 H       1  LIG1        0.0000
     63 H          -1.5480   -1.1757   -0.5552 H       1  LIG1        0.0000
     64 H          -1.0403   -1.4631    0.9700 H       1  LIG1        0.0000
@<TRIPOS>BOND
     1     1     2    1
     2     2     3   ar
     3     3     4   ar
     4     4     5   ar
     5     5     6   ar
     6     6     7   ar
     7     7     2   ar
     8     7     8    1
     9     8     9    1
    10     9    10    2
    11    10    11    1
    12    11    12    2
    13    11    13    1
    14    13    14    1
    15    14    15    3
    16    13    16    1
    17    16    17    2
    18    17    18    1
    19    18    19    2
    20    19    20    1
    21    20    21    1
    22    21    22    1
    23    22    23    1
    24    23    24    1
    25    24    25    1
    26    25    20    1
    27    19    26    1
    28    26    16    1
    29    26    27    1
    30    27    28   ar
    31    28    29   ar
    32    29    30   ar
    33    30    31   ar
    34    31    32   ar
    35    32    27   ar
    36    10    33    1
    37    33    34    2
    38    34     8    1
    39    34    35    1
    40    35    36    1
    41    36    37    1
    42    37    33    1
    43    13    38    1
    44     1    39    1
    45     1    40    1
    46     1    41    1
    47     3    42    1
    48     4    43    1
    49     5    44    1
    50     6    45    1
    51    21    46    1
    52    21    47    1
    53    22    48    1
    54    22    49    1
    55    24    50    1
    56    24    51    1
    57    25    52    1
    58    25    53    1
    59    28    54    1
    60    29    55    1
    61    30    56    1
    62    31    57    1
    63    32    58    1
    64    35    59    1
    65    35    60    1
    66    36    61    1
    67    36    62    1
    68    37    63    1
    69    37    64    1
