@<TRIPOS>MOLECULE
*****
 64 69 0 0 0
SMALL
USER_CHARGES

@<TRIPOS>ATOM
      1 C1          3.3874    1.6982   -2.4051 C.3     1  LIG1        0.0000
      2 C2          4.1764    1.2727   -1.1772 C.3     1  LIG1        0.0000
      3 C3          5.5666    1.3144   -1.1950 C.3     1  LIG1        0.0000
      4 C4          6.2887    0.9246   -0.0713 C.3     1  LIG1        0.0000
      5 C5          5.6203    0.4940    1.0701 C.3     1  LIG1        0.0000
      6 C6          4.2300    0.4523    1.0878 C.3     1  LIG1        0.0000
      7 C7          3.5079    0.8422   -0.0355 C.3     1  LIG1        0.0000
      8 N8          2.1082    0.8009   -0.0173 N.pl3   1  LIG1        0.0000
      9 N9          1.2846    1.8327   -0.0084 N.2     1  LIG1        0.0000
     10 C10         0.0416    1.4125    0.0129 C.2     1  LIG1        0.0000
     11 C11        -1.1331    2.2609    0.0084 C.2     1  LIG1        0.0000
     12 O12        -1.0112    3.4544   -0.0165 O.2     1  LIG1        0.0000
     13 C13        -2.5198    1.6390    0.0351 C.3     1  LIG1        0.0000
     14 C14        -2.6758    0.8026    1.2947 C.1     1  LIG1        0.0000
     15 N15        -2.7927    0.1752    2.2393 N.1     1  LIG1        0.0000
     16 C16        -3.5688    2.7392    0.0244 C.2     1  LIG1        0.0000
     17 N17        -3.7100    3.6830    0.9251 N.2     1  LIG1        0.0000
     18 N18        -4.7197    4.4571    0.5943 N.2     1  LIG1        0.0000
     19 C19        -5.2422    4.0233   -0.5250 C.cat   1  LIG1        0.0000
     20 N20        -6.3365    4.5839   -1.1952 N.pl3   1  LIG1        0.0000
     21 C21        -6.9962    5.7715   -0.6313 C.3     1  LIG1        0.0000
     22 C22        -8.4859    5.7661   -0.9388 C.3     1  LIG1        0.0000
     23 O23        -8.7310    5.4474   -2.3025 O.3     1  LIG1        0.0000
     24 C24        -8.3205    4.1165   -2.5888 C.3     1  LIG1        0.0000
     25 C25        -6.8156    3.9565   -2.4370 C.3     1  LIG1        0.0000
     26 N26        -4.5345    2.9286   -0.9136 N.pl3   1  LIG1        0.0000
     27 C27        -4.7616    2.1555   -2.0588 C.3     1  LIG1        0.0000
     28 C28        -5.6228    1.0651   -1.9934 C.3     1  LIG1        0.0000
     29 C29        -5.8419    0.3022   -3.1357 C.3     1  LIG1        0.0000
     30 C30        -5.2031    0.6329   -4.3269 C.3     1  LIG1        0.0000
     31 C31        -4.3437    1.7252   -4.3832 C.3     1  LIG1        0.0000
     32 C32        -4.1185    2.4932   -3.2451 C.3     1  LIG1        0.0000
     33 C33         0.0661    0.0021    0.0183 C.2     1  LIG1        0.0000
     34 C34         1.3570   -0.3431   -0.0128 C.2     1  LIG1        0.0000
     35 C35         1.4938   -1.8533   -0.0478 C.3     1  LIG1        0.0000
     36 C36         0.1679   -2.3334    0.5226 C.3     1  LIG1        0.0000
     37 C37        -0.7641   -1.2691   -0.0179 C.3     1  LIG1        0.0000
     38 H          -2.6395    1.0565   -0.7688 H       1  LIG1        0.0000
     39 H           4.0199    1.9760   -3.1280 H       1  LIG1        0.0000
     40 H           2.8307    0.9317   -2.7256 H       1  LIG1        0.0000
     41 H           2.7924    2.4666   -2.1692 H       1  LIG1        0.0000
     42 H           6.0471    1.6245   -2.0154 H       1  LIG1        0.0000
     43 H           7.2882    0.9540   -0.0842 H       1  LIG1        0.0000
     44 H           6.1393    0.2145    1.8779 H       1  LIG1        0.0000
     45 H           3.7495    0.1419    1.9081 H       1  LIG1        0.0000
     46 H          -6.5839    6.5927   -1.0258 H       1  LIG1        0.0000
     47 H          -6.8671    5.7772    0.3603 H       1  LIG1        0.0000
     48 H          -8.9356    5.0863   -0.3595 H       1  LIG1        0.0000
     49 H          -8.8621    6.6718   -0.7434 H       1  LIG1        0.0000
     50 H          -8.5789    3.8911   -3.5281 H       1  LIG1        0.0000
     51 H          -8.7797    3.4913   -1.9576 H       1  LIG1        0.0000
     52 H          -6.5914    2.9821   -2.4178 H       1  LIG1        0.0000
     53 H          -6.3614    4.3877   -3.2167 H       1  LIG1        0.0000
     54 H          -6.0793    0.8322   -1.1348 H       1  LIG1        0.0000
     55 H          -6.4587   -0.4841   -3.1008 H       1  LIG1        0.0000
     56 H          -5.3627    0.0825   -5.1465 H       1  LIG1        0.0000
     57 H          -3.8877    1.9587   -5.2420 H       1  LIG1        0.0000
     58 H          -3.5012    3.2791   -3.2796 H       1  LIG1        0.0000
     59 H           2.2595   -2.1575    0.5188 H       1  LIG1        0.0000
     60 H           1.6212   -2.1805   -0.9841 H       1  LIG1        0.0000
     61 H           0.1776   -2.3429    1.5225 H       1  LIG1        0.0000
     62 H          -0.0729   -3.2426    0.1829 H       1  LIG1        0.0000
     63 H          -1.0439   -1.4840   -0.9536 H       1  LIG1        0.0000
     64 H          -1.5750   -1.1803    0.5605 H       1  LIG1        0.0000
@<TRIPOS>BOND
     1     1     2    1
     2     2     3   ar
     3     3     4   ar
     4     4     5   ar
     5     5     6   ar
     6     6     7   ar
     7     7     2   ar
     8     7     8    1
     9     8     9    1
    10     9    10    2
    11    10    11    1
    12    11    12    2
    13    11    13    1
    14    13    14    1
    15    14    15    3
    16    13    16    1
    17    16    17    2
    18    17    18    1
    19    18    19    2
    20    19    20    1
    21    20    21    1
    22    21    22    1
    23    22    23    1
    24    23    24    1
    25    24    25    1
    26    25    20    1
    27    19    26    1
    28    26    16    1
    29    26    27    1
    30    27    28   ar
    31    28    29   ar
    32    29    30   ar
    33    30    31   ar
    34    31    32   ar
    35    32    27   ar
    36    10    33    1
    37    33    34    2
    38    34     8    1
    39    34    35    1
    40    35    36    1
    41    36    37    1
    42    37    33    1
    43    13    38    1
    44     1    39    1
    45     1    40    1
    46     1    41    1
    47     3    42    1
    48     4    43    1
    49     5    44    1
    50     6    45    1
    51    21    46    1
    52    21    47    1
    53    22    48    1
    54    22    49    1
    55    24    50    1
    56    24    51    1
    57    25    52    1
    58    25    53    1
    59    28    54    1
    60    29    55    1
    61    30    56    1
    62    31    57    1
    63    32    58    1
    64    35    59    1
    65    35    60    1
    66    36    61    1
    67    36    62    1
    68    37    63    1
    69    37    64    1
