@<TRIPOS>MOLECULE
*****
 64 69 0 0 0
SMALL
USER_CHARGES

@<TRIPOS>ATOM
      1 C1          3.3956    1.6825    2.3862 C.3     1  LIG1        0.0000
      2 C2          4.1819    1.2714    1.1517 C.3     1  LIG1        0.0000
      3 C3          5.5720    1.3151    1.1662 C.3     1  LIG1        0.0000
      4 C4          6.2917    0.9392    0.0361 C.3     1  LIG1        0.0000
      5 C5          5.6208    0.5190   -1.1077 C.3     1  LIG1        0.0000
      6 C6          4.2305    0.4753   -1.1221 C.3     1  LIG1        0.0000
      7 C7          3.5109    0.8509    0.0077 C.3     1  LIG1        0.0000
      8 N8          2.1113    0.8062   -0.0066 N.pl3   1  LIG1        0.0000
      9 N9          1.2840    1.8342   -0.0025 N.2     1  LIG1        0.0000
     10 C10         0.0364    1.4291   -0.0215 C.2     1  LIG1        0.0000
     11 C11        -1.1421    2.2737   -0.0127 C.2     1  LIG1        0.0000
     12 O12        -2.2351    1.7788   -0.0325 O.2     1  LIG1        0.0000
     13 C13        -0.9931    3.7860    0.0214 C.3     1  LIG1        0.0000
     14 C14        -0.2202    4.2468   -1.2036 C.1     1  LIG1        0.0000
     15 N15         0.3594    4.5923   -2.1224 N.1     1  LIG1        0.0000
     16 C16        -2.3697    4.4309    0.0242 C.2     1  LIG1        0.0000
     17 N17        -3.2879    4.2996   -0.9042 N.2     1  LIG1        0.0000
     18 N18        -4.3505    4.9984   -0.5716 N.2     1  LIG1        0.0000
     19 C19        -4.1320    5.5887    0.5765 C.cat   1  LIG1        0.0000
     20 N20        -5.0271    6.4225    1.2579 N.pl3   1  LIG1        0.0000
     21 C21        -6.3492    6.6925    0.6724 C.3     1  LIG1        0.0000
     22 C22        -6.8252    8.0942    1.0223 C.3     1  LIG1        0.0000
     23 O23        -6.6332    8.3759    2.4025 O.3     1  LIG1        0.0000
     24 C24        -5.2480    8.3980    2.7226 C.3     1  LIG1        0.0000
     25 C25        -4.6141    7.0283    2.5337 C.3     1  LIG1        0.0000
     26 N26        -2.8785    5.2504    0.9822 N.pl3   1  LIG1        0.0000
     27 C27        -2.2450    5.6672    2.1593 C.3     1  LIG1        0.0000
     28 C28        -1.4838    6.8315    2.1561 C.3     1  LIG1        0.0000
     29 C29        -0.8575    7.2377    3.3297 C.3     1  LIG1        0.0000
     30 C30        -0.9958    6.4824    4.4902 C.3     1  LIG1        0.0000
     31 C31        -1.7591    5.3195    4.4843 C.3     1  LIG1        0.0000
     32 C32        -2.3885    4.9057    3.3145 C.3     1  LIG1        0.0000
     33 C33         0.0761    0.0096    0.0018 C.2     1  LIG1        0.0000
     34 C34         1.3749   -0.3403   -0.0012 C.2     1  LIG1        0.0000
     35 C35         1.5154   -1.8490   -0.0030 C.3     1  LIG1        0.0000
     36 C36         0.1703   -2.3503   -0.4743 C.3     1  LIG1        0.0000
     37 C37        -0.7459   -1.2623    0.0357 C.3     1  LIG1        0.0000
     38 H          -0.4980    4.0536    0.8480 H       1  LIG1        0.0000
     39 H           4.0297    1.9545    3.1100 H       1  LIG1        0.0000
     40 H           2.7982    2.4519    2.1599 H       1  LIG1        0.0000
     41 H           2.8416    0.9116    2.7006 H       1  LIG1        0.0000
     42 H           6.0543    1.6166    1.9887 H       1  LIG1        0.0000
     43 H           7.2911    0.9712    0.0462 H       1  LIG1        0.0000
     44 H           6.1380    0.2482   -1.9196 H       1  LIG1        0.0000
     45 H           3.7483    0.1740   -1.9446 H       1  LIG1        0.0000
     46 H          -7.0057    6.0265    1.0265 H       1  LIG1        0.0000
     47 H          -6.2901    6.6060   -0.3221 H       1  LIG1        0.0000
     48 H          -6.3102    8.7579    0.4797 H       1  LIG1        0.0000
     49 H          -7.7986    8.1710    0.8065 H       1  LIG1        0.0000
     50 H          -5.1387    8.6786    3.6762 H       1  LIG1        0.0000
     51 H          -4.7866    9.0553    2.1267 H       1  LIG1        0.0000
     52 H          -3.6189    7.1255    2.5416 H       1  LIG1        0.0000
     53 H          -4.8967    6.4316    3.2848 H       1  LIG1        0.0000
     54 H          -1.3881    7.3706    1.3193 H       1  LIG1        0.0000
     55 H          -0.3075    8.0729    3.3394 H       1  LIG1        0.0000
     56 H          -0.5443    6.7770    5.3324 H       1  LIG1        0.0000
     57 H          -1.8556    4.7807    5.3212 H       1  LIG1        0.0000
     58 H          -2.9379    4.0702    3.3043 H       1  LIG1        0.0000
     59 H           1.7167   -2.1868    0.9165 H       1  LIG1        0.0000
     60 H           2.2397   -2.1363   -0.6297 H       1  LIG1        0.0000
     61 H          -0.0527   -3.2368   -0.0687 H       1  LIG1        0.0000
     62 H           0.1349   -2.4215   -1.4711 H       1  LIG1        0.0000
     63 H          -1.5480   -1.1757   -0.5552 H       1  LIG1        0.0000
     64 H          -1.0403   -1.4631    0.9700 H       1  LIG1        0.0000
@<TRIPOS>BOND
     1     1     2    1
     2     2     3   ar
     3     3     4   ar
     4     4     5   ar
     5     5     6   ar
     6     6     7   ar
     7     7     2   ar
     8     7     8    1
     9     8     9    1
    10     9    10    2
    11    10    11    1
    12    11    12    2
    13    11    13    1
    14    13    14    1
    15    14    15    3
    16    13    16    1
    17    16    17    2
    18    17    18    1
    19    18    19    2
    20    19    20    1
    21    20    21    1
    22    21    22    1
    23    22    23    1
    24    23    24    1
    25    24    25    1
    26    25    20    1
    27    19    26    1
    28    26    16    1
    29    26    27    1
    30    27    28   ar
    31    28    29   ar
    32    29    30   ar
    33    30    31   ar
    34    31    32   ar
    35    32    27   ar
    36    10    33    1
    37    33    34    2
    38    34     8    1
    39    34    35    1
    40    35    36    1
    41    36    37    1
    42    37    33    1
    43    13    38    1
    44     1    39    1
    45     1    40    1
    46     1    41    1
    47     3    42    1
    48     4    43    1
    49     5    44    1
    50     6    45    1
    51    21    46    1
    52    21    47    1
    53    22    48    1
    54    22    49    1
    55    24    50    1
    56    24    51    1
    57    25    52    1
    58    25    53    1
    59    28    54    1
    60    29    55    1
    61    30    56    1
    62    31    57    1
    63    32    58    1
    64    35    59    1
    65    35    60    1
    66    36    61    1
    67    36    62    1
    68    37    63    1
    69    37    64    1
