@<TRIPOS>MOLECULE

  36   37
SMALL
USER_CHARGES
@<TRIPOS>ATOM
   1 C1          -0.2592     4.2268     2.3911 C.3          1    LIG   0.0000
   2 C2           0.3952     2.8549     2.3997 C.3          1    LIG   0.0000
   3 C3           0.3887     2.2816     0.9920 C.3          1    LIG   0.0000
   4 C4          -1.0449     2.1561     0.5026 C.3          1    LIG   0.0000
   5 O5           1.0000     1.0000     1.0000 O.3          1    LIG   0.0000
   6 C6           2.3498     1.0000     1.0000 C.ar         1    LIG   0.0000
   7 C7           3.0353     2.2104     0.9924 C.ar         1    LIG   0.0000
   8 C8           4.4265     2.2012     0.9945 C.ar         1    LIG   0.0000
   9 C9           5.1142     0.9918     1.0040 C.ar         1    LIG   0.0000
  10 N10          6.5148     0.9933     1.0048 N.pl3        1    LIG   0.0000
  11 C11          7.2163     0.3799    -0.0404 C.ar         1    LIG   0.0000
  12 N12          6.5745    -0.2171    -1.0567 N.ar         1    LIG   0.0000
  13 C13          7.2415    -0.8061    -2.0607 C.ar         1    LIG   0.0000
  14 C14          8.6323    -0.8189    -2.0839 C.ar         1    LIG   0.0000
  15 C15          9.3233    -0.2074    -1.0432 C.ar         1    LIG   0.0000
  16 C16          8.6069     0.3959    -0.0149 C.ar         1    LIG   0.0000
  17 Br17         9.5734     1.2591     1.4554 Br           1    LIG   0.0000
  18 C18          4.4199    -0.2132     1.0116 C.ar         1    LIG   0.0000
  19 C19          3.0292    -0.2139     1.0098 C.ar         1    LIG   0.0000
  20 H            0.8970     2.8896     0.3821 H            1    LIG   0.0000
  21 H           -0.2550     4.6040     3.3173 H            1    LIG   0.0000
  22 H            0.2492     4.8348     1.7813 H            1    LIG   0.0000
  23 H           -1.2024     4.1442     2.0692 H            1    LIG   0.0000
  24 H            1.3383     2.9375     2.7217 H            1    LIG   0.0000
  25 H           -0.1132     2.2469     3.0096 H            1    LIG   0.0000
  26 H           -1.4754     3.0587     0.4970 H            1    LIG   0.0000
  27 H           -1.0492     1.7790    -0.4235 H            1    LIG   0.0000
  28 H           -1.5533     1.5482     1.1125 H            1    LIG   0.0000
  29 H            2.5345     3.0760     0.9856 H            1    LIG   0.0000
  30 H            4.9322     3.0639     0.9892 H            1    LIG   0.0000
  31 H            7.0138     1.4325     1.7519 H            1    LIG   0.0000
  32 H            6.7319    -1.2419    -2.8025 H            1    LIG   0.0000
  33 H            9.1256    -1.2592    -2.8340 H            1    LIG   0.0000
  34 H           10.3232    -0.2014    -1.0345 H            1    LIG   0.0000
  35 H            4.9205    -1.0788     1.0184 H            1    LIG   0.0000
  36 H            2.5237    -1.0767     1.0155 H            1    LIG   0.0000
@<TRIPOS>BOND
   1        1        2 1
   2        2        3 1
   3        3        4 1
   4        3        5 1
   5        5        6 1
   6        6        7 ar
   7        7        8 ar
   8        8        9 ar
   9        9       10 1
  10       10       11 1
  11       11       12 ar
  12       12       13 ar
  13       13       14 ar
  14       14       15 ar
  15       15       16 ar
  16       16       11 ar
  17       16       17 1
  18        9       18 ar
  19       18       19 ar
  20       19        6 ar
  21        3       20 1
  22        1       21 1
  23        1       22 1
  24        1       23 1
  25        2       24 1
  26        2       25 1
  27        4       26 1
  28        4       27 1
  29        4       28 1
  30        7       29 1
  31        8       30 1
  32       10       31 1
  33       13       32 1
  34       14       33 1
  35       15       34 1
  36       18       35 1
  37       19       36 1

@<TRIPOS>MOLECULE

  36   37
SMALL
USER_CHARGES
@<TRIPOS>ATOM
   1 C1          -1.6993     3.5342     1.4743 C.3          1    LIG   0.0000
   2 C2          -1.0449     2.1623     1.4829 C.3          1    LIG   0.0000
   3 C3           0.3887     2.2816     0.9920 C.3          1    LIG   0.0000
   4 C4           0.3952     2.8372    -0.4228 C.3          1    LIG   0.0000
   5 O5           1.0000     1.0000     1.0000 O.3          1    LIG   0.0000
   6 C6           2.3498     1.0000     1.0000 C.ar         1    LIG   0.0000
   7 C7           3.0353     2.2104     0.9924 C.ar         1    LIG   0.0000
   8 C8           4.4265     2.2012     0.9945 C.ar         1    LIG   0.0000
   9 C9           5.1142     0.9918     1.0040 C.ar         1    LIG   0.0000
  10 N10          6.5148     0.9933     1.0048 N.pl3        1    LIG   0.0000
  11 C11          7.2163     0.3799    -0.0404 C.ar         1    LIG   0.0000
  12 N12          6.5745    -0.2171    -1.0567 N.ar         1    LIG   0.0000
  13 C13          7.2415    -0.8061    -2.0607 C.ar         1    LIG   0.0000
  14 C14          8.6323    -0.8189    -2.0839 C.ar         1    LIG   0.0000
  15 C15          9.3233    -0.2074    -1.0432 C.ar         1    LIG   0.0000
  16 C16          8.6069     0.3959    -0.0149 C.ar         1    LIG   0.0000
  17 Br17         9.5734     1.2591     1.4554 Br           1    LIG   0.0000
  18 C18          4.4199    -0.2132     1.0116 C.ar         1    LIG   0.0000
  19 C19          3.0292    -0.2139     1.0098 C.ar         1    LIG   0.0000
  20 H            0.8970     2.8972     1.5942 H            1    LIG   0.0000
  21 H           -2.6424     3.4557     1.7972 H            1    LIG   0.0000
  22 H           -1.1909     4.1498     2.0765 H            1    LIG   0.0000
  23 H           -1.6950     3.8997     0.5435 H            1    LIG   0.0000
  24 H           -1.0492     1.7968     2.4137 H            1    LIG   0.0000
  25 H           -1.5533     1.5467     0.8807 H            1    LIG   0.0000
  26 H           -0.0354     3.7398    -0.4285 H            1    LIG   0.0000
  27 H            1.3383     2.9158    -0.7458 H            1    LIG   0.0000
  28 H           -0.1132     2.2217    -1.0250 H            1    LIG   0.0000
  29 H            2.5345     3.0760     0.9856 H            1    LIG   0.0000
  30 H            4.9322     3.0639     0.9892 H            1    LIG   0.0000
  31 H            7.0138     1.4325     1.7519 H            1    LIG   0.0000
  32 H            6.7319    -1.2419    -2.8025 H            1    LIG   0.0000
  33 H            9.1256    -1.2592    -2.8340 H            1    LIG   0.0000
  34 H           10.3232    -0.2014    -1.0345 H            1    LIG   0.0000
  35 H            4.9205    -1.0788     1.0184 H            1    LIG   0.0000
  36 H            2.5237    -1.0767     1.0155 H            1    LIG   0.0000
@<TRIPOS>BOND
   1        1        2 1
   2        2        3 1
   3        3        4 1
   4        3        5 1
   5        5        6 1
   6        6        7 ar
   7        7        8 ar
   8        8        9 ar
   9        9       10 1
  10       10       11 1
  11       11       12 ar
  12       12       13 ar
  13       13       14 ar
  14       14       15 ar
  15       15       16 ar
  16       16       11 ar
  17       16       17 1
  18        9       18 ar
  19       18       19 ar
  20       19        6 ar
  21        3       20 1
  22        1       21 1
  23        1       22 1
  24        1       23 1
  25        2       24 1
  26        2       25 1
  27        4       26 1
  28        4       27 1
  29        4       28 1
  30        7       29 1
  31        8       30 1
  32       10       31 1
  33       13       32 1
  34       14       33 1
  35       15       34 1
  36       18       35 1
  37       19       36 1

@<TRIPOS>MOLECULE

  36   37
SMALL
USER_CHARGES
@<TRIPOS>ATOM
   1 C1          -0.2592     4.2268     2.3911 C.3          1    LIG   0.0000
   2 C2           0.3952     2.8549     2.3997 C.3          1    LIG   0.0000
   3 C3           0.3887     2.2816     0.9920 C.3          1    LIG   0.0000
   4 C4          -1.0449     2.1561     0.5026 C.3          1    LIG   0.0000
   5 O5           1.0000     1.0000     1.0000 O.3          1    LIG   0.0000
   6 C6           2.3498     1.0000     1.0000 C.ar         1    LIG   0.0000
   7 C7           3.0353     2.2104     0.9924 C.ar         1    LIG   0.0000
   8 C8           4.4265     2.2012     0.9945 C.ar         1    LIG   0.0000
   9 C9           5.1142     0.9918     1.0040 C.ar         1    LIG   0.0000
  10 N10          6.5148     0.9933     1.0048 N.pl3        1    LIG   0.0000
  11 C11          7.2149     0.3956     2.0601 C.ar         1    LIG   0.0000
  12 N12          6.5719    -0.1868     3.0839 N.ar         1    LIG   0.0000
  13 C13          7.2376    -0.7610     4.0973 C.ar         1    LIG   0.0000
  14 C14          8.6283    -0.7732     4.1226 C.ar         1    LIG   0.0000
  15 C15          9.3207    -0.1770     3.0739 C.ar         1    LIG   0.0000
  16 C16          8.6056     0.4112     2.0360 C.ar         1    LIG   0.0000
  17 Br17         9.5740     1.2539     0.5551 Br           1    LIG   0.0000
  18 C18          4.4199    -0.2132     1.0116 C.ar         1    LIG   0.0000
  19 C19          3.0292    -0.2139     1.0098 C.ar         1    LIG   0.0000
  20 H            0.8970     2.8896     0.3821 H            1    LIG   0.0000
  21 H           -0.2550     4.6040     3.3173 H            1    LIG   0.0000
  22 H            0.2492     4.8348     1.7813 H            1    LIG   0.0000
  23 H           -1.2024     4.1442     2.0692 H            1    LIG   0.0000
  24 H            1.3383     2.9375     2.7217 H            1    LIG   0.0000
  25 H           -0.1132     2.2469     3.0096 H            1    LIG   0.0000
  26 H           -1.4754     3.0587     0.4970 H            1    LIG   0.0000
  27 H           -1.0492     1.7790    -0.4235 H            1    LIG   0.0000
  28 H           -1.5533     1.5482     1.1125 H            1    LIG   0.0000
  29 H            2.5345     3.0760     0.9856 H            1    LIG   0.0000
  30 H            4.9322     3.0639     0.9892 H            1    LIG   0.0000
  31 H            7.0148     1.4212     0.2519 H            1    LIG   0.0000
  32 H            6.7270    -1.1861     4.8447 H            1    LIG   0.0000
  33 H            9.1207    -1.2022     4.8799 H            1    LIG   0.0000
  34 H           10.3206    -0.1713     3.0663 H            1    LIG   0.0000
  35 H            4.9205    -1.0788     1.0184 H            1    LIG   0.0000
  36 H            2.5237    -1.0767     1.0155 H            1    LIG   0.0000
@<TRIPOS>BOND
   1        1        2 1
   2        2        3 1
   3        3        4 1
   4        3        5 1
   5        5        6 1
   6        6        7 ar
   7        7        8 ar
   8        8        9 ar
   9        9       10 1
  10       10       11 1
  11       11       12 ar
  12       12       13 ar
  13       13       14 ar
  14       14       15 ar
  15       15       16 ar
  16       16       11 ar
  17       16       17 1
  18        9       18 ar
  19       18       19 ar
  20       19        6 ar
  21        3       20 1
  22        1       21 1
  23        1       22 1
  24        1       23 1
  25        2       24 1
  26        2       25 1
  27        4       26 1
  28        4       27 1
  29        4       28 1
  30        7       29 1
  31        8       30 1
  32       10       31 1
  33       13       32 1
  34       14       33 1
  35       15       34 1
  36       18       35 1
  37       19       36 1

@<TRIPOS>MOLECULE

  36   37
SMALL
USER_CHARGES
@<TRIPOS>ATOM
   1 C1          -1.6993     3.5342     1.4743 C.3          1    LIG   0.0000
   2 C2          -1.0449     2.1623     1.4829 C.3          1    LIG   0.0000
   3 C3           0.3887     2.2816     0.9920 C.3          1    LIG   0.0000
   4 C4           0.3952     2.8372    -0.4228 C.3          1    LIG   0.0000
   5 O5           1.0000     1.0000     1.0000 O.3          1    LIG   0.0000
   6 C6           2.3498     1.0000     1.0000 C.ar         1    LIG   0.0000
   7 C7           3.0353     2.2104     0.9924 C.ar         1    LIG   0.0000
   8 C8           4.4265     2.2012     0.9945 C.ar         1    LIG   0.0000
   9 C9           5.1142     0.9918     1.0040 C.ar         1    LIG   0.0000
  10 N10          6.5148     0.9933     1.0048 N.pl3        1    LIG   0.0000
  11 C11          7.2149     0.3956     2.0601 C.ar         1    LIG   0.0000
  12 N12          6.5719    -0.1868     3.0839 N.ar         1    LIG   0.0000
  13 C13          7.2376    -0.7610     4.0973 C.ar         1    LIG   0.0000
  14 C14          8.6283    -0.7732     4.1226 C.ar         1    LIG   0.0000
  15 C15          9.3207    -0.1770     3.0739 C.ar         1    LIG   0.0000
  16 C16          8.6056     0.4112     2.0360 C.ar         1    LIG   0.0000
  17 Br17         9.5740     1.2539     0.5551 Br           1    LIG   0.0000
  18 C18          4.4199    -0.2132     1.0116 C.ar         1    LIG   0.0000
  19 C19          3.0292    -0.2139     1.0098 C.ar         1    LIG   0.0000
  20 H            0.8970     2.8972     1.5942 H            1    LIG   0.0000
  21 H           -2.6424     3.4557     1.7972 H            1    LIG   0.0000
  22 H           -1.1909     4.1498     2.0765 H            1    LIG   0.0000
  23 H           -1.6950     3.8997     0.5435 H            1    LIG   0.0000
  24 H           -1.0492     1.7968     2.4137 H            1    LIG   0.0000
  25 H           -1.5533     1.5467     0.8807 H            1    LIG   0.0000
  26 H           -0.0354     3.7398    -0.4285 H            1    LIG   0.0000
  27 H            1.3383     2.9158    -0.7458 H            1    LIG   0.0000
  28 H           -0.1132     2.2217    -1.0250 H            1    LIG   0.0000
  29 H            2.5345     3.0760     0.9856 H            1    LIG   0.0000
  30 H            4.9322     3.0639     0.9892 H            1    LIG   0.0000
  31 H            7.0148     1.4212     0.2519 H            1    LIG   0.0000
  32 H            6.7270    -1.1861     4.8447 H            1    LIG   0.0000
  33 H            9.1207    -1.2022     4.8799 H            1    LIG   0.0000
  34 H           10.3206    -0.1713     3.0663 H            1    LIG   0.0000
  35 H            4.9205    -1.0788     1.0184 H            1    LIG   0.0000
  36 H            2.5237    -1.0767     1.0155 H            1    LIG   0.0000
@<TRIPOS>BOND
   1        1        2 1
   2        2        3 1
   3        3        4 1
   4        3        5 1
   5        5        6 1
   6        6        7 ar
   7        7        8 ar
   8        8        9 ar
   9        9       10 1
  10       10       11 1
  11       11       12 ar
  12       12       13 ar
  13       13       14 ar
  14       14       15 ar
  15       15       16 ar
  16       16       11 ar
  17       16       17 1
  18        9       18 ar
  19       18       19 ar
  20       19        6 ar
  21        3       20 1
  22        1       21 1
  23        1       22 1
  24        1       23 1
  25        2       24 1
  26        2       25 1
  27        4       26 1
  28        4       27 1
  29        4       28 1
  30        7       29 1
  31        8       30 1
  32       10       31 1
  33       13       32 1
  34       14       33 1
  35       15       34 1
  36       18       35 1
  37       19       36 1

@<TRIPOS>MOLECULE

  36   37
SMALL
USER_CHARGES
@<TRIPOS>ATOM
   1 C1          -0.7084     4.0126     2.3925 C.3          1    LIG   0.0000
   2 C2          -0.0541     2.6406     2.4011 C.3          1    LIG   0.0000
   3 C3           0.3887     2.2816     0.9920 C.3          1    LIG   0.0000
   4 C4          -0.8203     2.2606     0.0709 C.3          1    LIG   0.0000
   5 O5           1.0000     1.0000     1.0000 O.3          1    LIG   0.0000
   6 C6           2.3498     1.0000     1.0000 C.ar         1    LIG   0.0000
   7 C7           3.0353     1.9321     1.7722 C.ar         1    LIG   0.0000
   8 C8           4.4265     1.9237     1.7679 C.ar         1    LIG   0.0000
   9 C9           5.1142     0.9912     0.9978 C.ar         1    LIG   0.0000
  10 N10          6.5148     0.9918     0.9994 N.pl3        1    LIG   0.0000
  11 C11          7.2163     1.1937    -0.1956 C.ar         1    LIG   0.0000
  12 N12          6.5745     1.3897    -1.3579 N.ar         1    LIG   0.0000
  13 C13          7.2415     1.5838    -2.5055 C.ar         1    LIG   0.0000
  14 C14          8.6323     1.5889    -2.5315 C.ar         1    LIG   0.0000
  15 C15          9.3233     1.3885    -1.3413 C.ar         1    LIG   0.0000
  16 C16          8.6069     1.1895    -0.1658 C.ar         1    LIG   0.0000
  17 Br17         9.5734     0.9058     1.5154 Br           1    LIG   0.0000
  18 C18          4.4199     0.0632     0.2291 C.ar         1    LIG   0.0000
  19 C19          3.0292     0.0638     0.2272 C.ar         1    LIG   0.0000
  20 H            1.0448     2.9619     0.6653 H            1    LIG   0.0000
  21 H           -0.9997     4.2487     3.3195 H            1    LIG   0.0000
  22 H           -0.0523     4.6928     2.0658 H            1    LIG   0.0000
  23 H           -1.5038     3.9987     1.7865 H            1    LIG   0.0000
  24 H            0.7413     2.6545     3.0070 H            1    LIG   0.0000
  25 H           -0.7102     1.9604     2.7278 H            1    LIG   0.0000
  26 H           -1.2508     3.1631     0.0653 H            1    LIG   0.0000
  27 H           -0.5290     2.0244    -0.8561 H            1    LIG   0.0000
  28 H           -1.4764     1.5803     0.3977 H            1    LIG   0.0000
  29 H            2.5345     2.5995     2.3234 H            1    LIG   0.0000
  30 H            4.9322     2.5880     2.3183 H            1    LIG   0.0000
  31 H            7.0138     0.8480     1.8540 H            1    LIG   0.0000
  32 H            6.7319     1.7268    -3.3540 H            1    LIG   0.0000
  33 H            9.1256     1.7338    -3.3892 H            1    LIG   0.0000
  34 H           10.3232     1.3874    -1.3308 H            1    LIG   0.0000
  35 H            4.9205    -0.6043    -0.3222 H            1    LIG   0.0000
  36 H            2.5237    -0.6008    -0.3230 H            1    LIG   0.0000
@<TRIPOS>BOND
   1        1        2 1
   2        2        3 1
   3        3        4 1
   4        3        5 1
   5        5        6 1
   6        6        7 ar
   7        7        8 ar
   8        8        9 ar
   9        9       10 1
  10       10       11 1
  11       11       12 ar
  12       12       13 ar
  13       13       14 ar
  14       14       15 ar
  15       15       16 ar
  16       16       11 ar
  17       16       17 1
  18        9       18 ar
  19       18       19 ar
  20       19        6 ar
  21        3       20 1
  22        1       21 1
  23        1       22 1
  24        1       23 1
  25        2       24 1
  26        2       25 1
  27        4       26 1
  28        4       27 1
  29        4       28 1
  30        7       29 1
  31        8       30 1
  32       10       31 1
  33       13       32 1
  34       14       33 1
  35       15       34 1
  36       18       35 1
  37       19       36 1

@<TRIPOS>MOLECULE

  36   37
SMALL
USER_CHARGES
@<TRIPOS>ATOM
   1 C1          -1.6993     3.5342     1.4743 C.3          1    LIG   0.0000
   2 C2          -1.0449     2.1623     1.4829 C.3          1    LIG   0.0000
   3 C3           0.3887     2.2816     0.9920 C.3          1    LIG   0.0000
   4 C4           0.3952     2.8372    -0.4228 C.3          1    LIG   0.0000
   5 O5           1.0000     1.0000     1.0000 O.3          1    LIG   0.0000
   6 C6           2.3498     1.0000     1.0000 C.ar         1    LIG   0.0000
   7 C7           3.0353     1.9321     1.7722 C.ar         1    LIG   0.0000
   8 C8           4.4265     1.9237     1.7679 C.ar         1    LIG   0.0000
   9 C9           5.1142     0.9912     0.9978 C.ar         1    LIG   0.0000
  10 N10          6.5148     0.9918     0.9994 N.pl3        1    LIG   0.0000
  11 C11          7.2163     1.1937    -0.1956 C.ar         1    LIG   0.0000
  12 N12          6.5745     1.3897    -1.3579 N.ar         1    LIG   0.0000
  13 C13          7.2415     1.5838    -2.5055 C.ar         1    LIG   0.0000
  14 C14          8.6323     1.5889    -2.5315 C.ar         1    LIG   0.0000
  15 C15          9.3233     1.3885    -1.3413 C.ar         1    LIG   0.0000
  16 C16          8.6069     1.1895    -0.1658 C.ar         1    LIG   0.0000
  17 Br17         9.5734     0.9058     1.5154 Br           1    LIG   0.0000
  18 C18          4.4199     0.0632     0.2291 C.ar         1    LIG   0.0000
  19 C19          3.0292     0.0638     0.2272 C.ar         1    LIG   0.0000
  20 H            0.8970     2.8972     1.5942 H            1    LIG   0.0000
  21 H           -2.6424     3.4557     1.7972 H            1    LIG   0.0000
  22 H           -1.1909     4.1498     2.0765 H            1    LIG   0.0000
  23 H           -1.6950     3.8997     0.5435 H            1    LIG   0.0000
  24 H           -1.0492     1.7968     2.4137 H            1    LIG   0.0000
  25 H           -1.5533     1.5467     0.8807 H            1    LIG   0.0000
  26 H           -0.0354     3.7398    -0.4285 H            1    LIG   0.0000
  27 H            1.3383     2.9158    -0.7458 H            1    LIG   0.0000
  28 H           -0.1132     2.2217    -1.0250 H            1    LIG   0.0000
  29 H            2.5345     2.5995     2.3234 H            1    LIG   0.0000
  30 H            4.9322     2.5880     2.3183 H            1    LIG   0.0000
  31 H            7.0138     0.8480     1.8540 H            1    LIG   0.0000
  32 H            6.7319     1.7268    -3.3540 H            1    LIG   0.0000
  33 H            9.1256     1.7338    -3.3892 H            1    LIG   0.0000
  34 H           10.3232     1.3874    -1.3308 H            1    LIG   0.0000
  35 H            4.9205    -0.6043    -0.3222 H            1    LIG   0.0000
  36 H            2.5237    -0.6008    -0.3230 H            1    LIG   0.0000
@<TRIPOS>BOND
   1        1        2 1
   2        2        3 1
   3        3        4 1
   4        3        5 1
   5        5        6 1
   6        6        7 ar
   7        7        8 ar
   8        8        9 ar
   9        9       10 1
  10       10       11 1
  11       11       12 ar
  12       12       13 ar
  13       13       14 ar
  14       14       15 ar
  15       15       16 ar
  16       16       11 ar
  17       16       17 1
  18        9       18 ar
  19       18       19 ar
  20       19        6 ar
  21        3       20 1
  22        1       21 1
  23        1       22 1
  24        1       23 1
  25        2       24 1
  26        2       25 1
  27        4       26 1
  28        4       27 1
  29        4       28 1
  30        7       29 1
  31        8       30 1
  32       10       31 1
  33       13       32 1
  34       14       33 1
  35       15       34 1
  36       18       35 1
  37       19       36 1

@<TRIPOS>MOLECULE

  36   37
SMALL
USER_CHARGES
@<TRIPOS>ATOM
   1 C1          -0.7084     4.0126     2.3925 C.3          1    LIG   0.0000
   2 C2          -0.0541     2.6406     2.4011 C.3          1    LIG   0.0000
   3 C3           0.3887     2.2816     0.9920 C.3          1    LIG   0.0000
   4 C4          -0.8203     2.2606     0.0709 C.3          1    LIG   0.0000
   5 O5           1.0000     1.0000     1.0000 O.3          1    LIG   0.0000
   6 C6           2.3498     1.0000     1.0000 C.ar         1    LIG   0.0000
   7 C7           3.0353     1.9321     1.7722 C.ar         1    LIG   0.0000
   8 C8           4.4265     1.9237     1.7679 C.ar         1    LIG   0.0000
   9 C9           5.1142     0.9912     0.9978 C.ar         1    LIG   0.0000
  10 N10          6.5148     0.9918     0.9994 N.pl3        1    LIG   0.0000
  11 C11          7.2149    -0.1444     1.4235 C.ar         1    LIG   0.0000
  12 N12          6.5719    -1.2487     1.8335 N.ar         1    LIG   0.0000
  13 C13          7.2376    -2.3399     2.2407 C.ar         1    LIG   0.0000
  14 C14          8.6283    -2.3655     2.2522 C.ar         1    LIG   0.0000
  15 C15          9.3207    -1.2347     1.8322 C.ar         1    LIG   0.0000
  16 C16          8.6056    -0.1170     1.4152 C.ar         1    LIG   0.0000
  17 Br17         9.5740     1.4804     0.8224 Br           1    LIG   0.0000
  18 C18          4.4199     0.0632     0.2291 C.ar         1    LIG   0.0000
  19 C19          3.0292     0.0638     0.2272 C.ar         1    LIG   0.0000
  20 H            1.0448     2.9619     0.6653 H            1    LIG   0.0000
  21 H           -0.9997     4.2487     3.3195 H            1    LIG   0.0000
  22 H           -0.0523     4.6928     2.0658 H            1    LIG   0.0000
  23 H           -1.5038     3.9987     1.7865 H            1    LIG   0.0000
  24 H            0.7413     2.6545     3.0070 H            1    LIG   0.0000
  25 H           -0.7102     1.9604     2.7278 H            1    LIG   0.0000
  26 H           -1.2508     3.1631     0.0653 H            1    LIG   0.0000
  27 H           -0.5290     2.0244    -0.8561 H            1    LIG   0.0000
  28 H           -1.4764     1.5803     0.3977 H            1    LIG   0.0000
  29 H            2.5345     2.5995     2.3234 H            1    LIG   0.0000
  30 H            4.9322     2.5880     2.3183 H            1    LIG   0.0000
  31 H            7.0148     1.8035     0.6977 H            1    LIG   0.0000
  32 H            6.7270    -3.1459     2.5400 H            1    LIG   0.0000
  33 H            9.1207    -3.1809     2.5566 H            1    LIG   0.0000
  34 H           10.3206    -1.2255     1.8300 H            1    LIG   0.0000
  35 H            4.9205    -0.6043    -0.3222 H            1    LIG   0.0000
  36 H            2.5237    -0.6008    -0.3230 H            1    LIG   0.0000
@<TRIPOS>BOND
   1        1        2 1
   2        2        3 1
   3        3        4 1
   4        3        5 1
   5        5        6 1
   6        6        7 ar
   7        7        8 ar
   8        8        9 ar
   9        9       10 1
  10       10       11 1
  11       11       12 ar
  12       12       13 ar
  13       13       14 ar
  14       14       15 ar
  15       15       16 ar
  16       16       11 ar
  17       16       17 1
  18        9       18 ar
  19       18       19 ar
  20       19        6 ar
  21        3       20 1
  22        1       21 1
  23        1       22 1
  24        1       23 1
  25        2       24 1
  26        2       25 1
  27        4       26 1
  28        4       27 1
  29        4       28 1
  30        7       29 1
  31        8       30 1
  32       10       31 1
  33       13       32 1
  34       14       33 1
  35       15       34 1
  36       18       35 1
  37       19       36 1

@<TRIPOS>MOLECULE

  36   37
SMALL
USER_CHARGES
@<TRIPOS>ATOM
   1 C1          -1.6993     3.5342     1.4743 C.3          1    LIG   0.0000
   2 C2          -1.0449     2.1623     1.4829 C.3          1    LIG   0.0000
   3 C3           0.3887     2.2816     0.9920 C.3          1    LIG   0.0000
   4 C4           0.3952     2.8372    -0.4228 C.3          1    LIG   0.0000
   5 O5           1.0000     1.0000     1.0000 O.3          1    LIG   0.0000
   6 C6           2.3498     1.0000     1.0000 C.ar         1    LIG   0.0000
   7 C7           3.0353     1.9321     1.7722 C.ar         1    LIG   0.0000
   8 C8           4.4265     1.9237     1.7679 C.ar         1    LIG   0.0000
   9 C9           5.1142     0.9912     0.9978 C.ar         1    LIG   0.0000
  10 N10          6.5148     0.9918     0.9994 N.pl3        1    LIG   0.0000
  11 C11          7.2149    -0.1444     1.4235 C.ar         1    LIG   0.0000
  12 N12          6.5719    -1.2487     1.8335 N.ar         1    LIG   0.0000
  13 C13          7.2376    -2.3399     2.2407 C.ar         1    LIG   0.0000
  14 C14          8.6283    -2.3655     2.2522 C.ar         1    LIG   0.0000
  15 C15          9.3207    -1.2347     1.8322 C.ar         1    LIG   0.0000
  16 C16          8.6056    -0.1170     1.4152 C.ar         1    LIG   0.0000
  17 Br17         9.5740     1.4804     0.8224 Br           1    LIG   0.0000
  18 C18          4.4199     0.0632     0.2291 C.ar         1    LIG   0.0000
  19 C19          3.0292     0.0638     0.2272 C.ar         1    LIG   0.0000
  20 H            0.8970     2.8972     1.5942 H            1    LIG   0.0000
  21 H           -2.6424     3.4557     1.7972 H            1    LIG   0.0000
  22 H           -1.1909     4.1498     2.0765 H            1    LIG   0.0000
  23 H           -1.6950     3.8997     0.5435 H            1    LIG   0.0000
  24 H           -1.0492     1.7968     2.4137 H            1    LIG   0.0000
  25 H           -1.5533     1.5467     0.8807 H            1    LIG   0.0000
  26 H           -0.0354     3.7398    -0.4285 H            1    LIG   0.0000
  27 H            1.3383     2.9158    -0.7458 H            1    LIG   0.0000
  28 H           -0.1132     2.2217    -1.0250 H            1    LIG   0.0000
  29 H            2.5345     2.5995     2.3234 H            1    LIG   0.0000
  30 H            4.9322     2.5880     2.3183 H            1    LIG   0.0000
  31 H            7.0148     1.8035     0.6977 H            1    LIG   0.0000
  32 H            6.7270    -3.1459     2.5400 H            1    LIG   0.0000
  33 H            9.1207    -3.1809     2.5566 H            1    LIG   0.0000
  34 H           10.3206    -1.2255     1.8300 H            1    LIG   0.0000
  35 H            4.9205    -0.6043    -0.3222 H            1    LIG   0.0000
  36 H            2.5237    -0.6008    -0.3230 H            1    LIG   0.0000
@<TRIPOS>BOND
   1        1        2 1
   2        2        3 1
   3        3        4 1
   4        3        5 1
   5        5        6 1
   6        6        7 ar
   7        7        8 ar
   8        8        9 ar
   9        9       10 1
  10       10       11 1
  11       11       12 ar
  12       12       13 ar
  13       13       14 ar
  14       14       15 ar
  15       15       16 ar
  16       16       11 ar
  17       16       17 1
  18        9       18 ar
  19       18       19 ar
  20       19        6 ar
  21        3       20 1
  22        1       21 1
  23        1       22 1
  24        1       23 1
  25        2       24 1
  26        2       25 1
  27        4       26 1
  28        4       27 1
  29        4       28 1
  30        7       29 1
  31        8       30 1
  32       10       31 1
  33       13       32 1
  34       14       33 1
  35       15       34 1
  36       18       35 1
  37       19       36 1

@<TRIPOS>MOLECULE

  36   37
SMALL
USER_CHARGES
@<TRIPOS>ATOM
   1 C1          -0.2592     4.2268     2.3911 C.3          1    LIG   0.0000
   2 C2           0.3952     2.8549     2.3997 C.3          1    LIG   0.0000
   3 C3           0.3887     2.2816     0.9920 C.3          1    LIG   0.0000
   4 C4          -1.0449     2.1561     0.5026 C.3          1    LIG   0.0000
   5 O5           1.0000     1.0000     1.0000 O.3          1    LIG   0.0000
   6 C6           2.3498     1.0000     1.0000 C.ar         1    LIG   0.0000
   7 C7           3.0353     1.9223     0.2162 C.ar         1    LIG   0.0000
   8 C8           4.4265     1.9166     0.2237 C.ar         1    LIG   0.0000
   9 C9           5.1142     0.9963     1.0083 C.ar         1    LIG   0.0000
  10 N10          6.5148     0.9980     1.0080 N.pl3        1    LIG   0.0000
  11 C11          7.2163    -0.1438     0.6016 C.ar         1    LIG   0.0000
  12 N12          6.5745    -1.2544     0.2068 N.ar         1    LIG   0.0000
  13 C13          7.2415    -2.3509    -0.1837 C.ar         1    LIG   0.0000
  14 C14          8.6323    -2.3756    -0.1932 C.ar         1    LIG   0.0000
  15 C15          9.3233    -1.2383     0.2109 C.ar         1    LIG   0.0000
  16 C16          8.6069    -0.1152     0.6109 C.ar         1    LIG   0.0000
  17 Br17         9.5734     1.4912     1.1823 Br           1    LIG   0.0000
  18 C18          4.4199     0.0781     1.7887 C.ar         1    LIG   0.0000
  19 C19          3.0292     0.0764     1.7878 C.ar         1    LIG   0.0000
  20 H            0.8970     2.8896     0.3821 H            1    LIG   0.0000
  21 H           -0.2550     4.6040     3.3173 H            1    LIG   0.0000
  22 H            0.2492     4.8348     1.7813 H            1    LIG   0.0000
  23 H           -1.2024     4.1442     2.0692 H            1    LIG   0.0000
  24 H            1.3383     2.9375     2.7217 H            1    LIG   0.0000
  25 H           -0.1132     2.2469     3.0096 H            1    LIG   0.0000
  26 H           -1.4754     3.0587     0.4970 H            1    LIG   0.0000
  27 H           -1.0492     1.7790    -0.4235 H            1    LIG   0.0000
  28 H           -1.5533     1.5482     1.1125 H            1    LIG   0.0000
  29 H            2.5345     2.5810    -0.3454 H            1    LIG   0.0000
  30 H            4.9322     2.5741    -0.3349 H            1    LIG   0.0000
  31 H            7.0138     1.8146     1.2980 H            1    LIG   0.0000
  32 H            6.7319    -3.1616    -0.4718 H            1    LIG   0.0000
  33 H            9.1256    -3.1951    -0.4849 H            1    LIG   0.0000
  34 H           10.3232    -1.2281     0.2138 H            1    LIG   0.0000
  35 H            4.9205    -0.5807     2.3504 H            1    LIG   0.0000
  36 H            2.5237    -0.5809     2.3467 H            1    LIG   0.0000
@<TRIPOS>BOND
   1        1        2 1
   2        2        3 1
   3        3        4 1
   4        3        5 1
   5        5        6 1
   6        6        7 ar
   7        7        8 ar
   8        8        9 ar
   9        9       10 1
  10       10       11 1
  11       11       12 ar
  12       12       13 ar
  13       13       14 ar
  14       14       15 ar
  15       15       16 ar
  16       16       11 ar
  17       16       17 1
  18        9       18 ar
  19       18       19 ar
  20       19        6 ar
  21        3       20 1
  22        1       21 1
  23        1       22 1
  24        1       23 1
  25        2       24 1
  26        2       25 1
  27        4       26 1
  28        4       27 1
  29        4       28 1
  30        7       29 1
  31        8       30 1
  32       10       31 1
  33       13       32 1
  34       14       33 1
  35       15       34 1
  36       18       35 1
  37       19       36 1

@<TRIPOS>MOLECULE

  36   37
SMALL
USER_CHARGES
@<TRIPOS>ATOM
   1 C1          -1.4747     3.6440     1.9046 C.3          1    LIG   0.0000
   2 C2          -0.8203     2.2721     1.9132 C.3          1    LIG   0.0000
   3 C3           0.3887     2.2816     0.9920 C.3          1    LIG   0.0000
   4 C4          -0.0541     2.6230    -0.4215 C.3          1    LIG   0.0000
   5 O5           1.0000     1.0000     1.0000 O.3          1    LIG   0.0000
   6 C6           2.3498     1.0000     1.0000 C.ar         1    LIG   0.0000
   7 C7           3.0353     1.9223     0.2162 C.ar         1    LIG   0.0000
   8 C8           4.4265     1.9166     0.2237 C.ar         1    LIG   0.0000
   9 C9           5.1142     0.9963     1.0083 C.ar         1    LIG   0.0000
  10 N10          6.5148     0.9980     1.0080 N.pl3        1    LIG   0.0000
  11 C11          7.2163    -0.1438     0.6016 C.ar         1    LIG   0.0000
  12 N12          6.5745    -1.2544     0.2068 N.ar         1    LIG   0.0000
  13 C13          7.2415    -2.3509    -0.1837 C.ar         1    LIG   0.0000
  14 C14          8.6323    -2.3756    -0.1932 C.ar         1    LIG   0.0000
  15 C15          9.3233    -1.2383     0.2109 C.ar         1    LIG   0.0000
  16 C16          8.6069    -0.1152     0.6109 C.ar         1    LIG   0.0000
  17 Br17         9.5734     1.4912     1.1823 Br           1    LIG   0.0000
  18 C18          4.4199     0.0781     1.7887 C.ar         1    LIG   0.0000
  19 C19          3.0292     0.0764     1.7878 C.ar         1    LIG   0.0000
  20 H            1.0448     2.9659     1.3102 H            1    LIG   0.0000
  21 H           -2.2701     3.6377     2.5107 H            1    LIG   0.0000
  22 H           -0.8185     4.3283     2.2228 H            1    LIG   0.0000
  23 H           -1.7660     3.8686     0.9747 H            1    LIG   0.0000
  24 H           -0.5290     2.0475     2.8431 H            1    LIG   0.0000
  25 H           -1.4764     1.5878     1.5950 H            1    LIG   0.0000
  26 H           -0.4846     3.5256    -0.4271 H            1    LIG   0.0000
  27 H            0.7413     2.6293    -1.0276 H            1    LIG   0.0000
  28 H           -0.7102     1.9387    -0.7397 H            1    LIG   0.0000
  29 H            2.5345     2.5810    -0.3454 H            1    LIG   0.0000
  30 H            4.9322     2.5741    -0.3349 H            1    LIG   0.0000
  31 H            7.0138     1.8146     1.2980 H            1    LIG   0.0000
  32 H            6.7319    -3.1616    -0.4718 H            1    LIG   0.0000
  33 H            9.1256    -3.1951    -0.4849 H            1    LIG   0.0000
  34 H           10.3232    -1.2281     0.2138 H            1    LIG   0.0000
  35 H            4.9205    -0.5807     2.3504 H            1    LIG   0.0000
  36 H            2.5237    -0.5809     2.3467 H            1    LIG   0.0000
@<TRIPOS>BOND
   1        1        2 1
   2        2        3 1
   3        3        4 1
   4        3        5 1
   5        5        6 1
   6        6        7 ar
   7        7        8 ar
   8        8        9 ar
   9        9       10 1
  10       10       11 1
  11       11       12 ar
  12       12       13 ar
  13       13       14 ar
  14       14       15 ar
  15       15       16 ar
  16       16       11 ar
  17       16       17 1
  18        9       18 ar
  19       18       19 ar
  20       19        6 ar
  21        3       20 1
  22        1       21 1
  23        1       22 1
  24        1       23 1
  25        2       24 1
  26        2       25 1
  27        4       26 1
  28        4       27 1
  29        4       28 1
  30        7       29 1
  31        8       30 1
  32       10       31 1
  33       13       32 1
  34       14       33 1
  35       15       34 1
  36       18       35 1
  37       19       36 1

@<TRIPOS>MOLECULE

  36   37
SMALL
USER_CHARGES
@<TRIPOS>ATOM
   1 C1          -0.2592     4.2268     2.3911 C.3          1    LIG   0.0000
   2 C2           0.3952     2.8549     2.3997 C.3          1    LIG   0.0000
   3 C3           0.3887     2.2816     0.9920 C.3          1    LIG   0.0000
   4 C4          -1.0449     2.1561     0.5026 C.3          1    LIG   0.0000
   5 O5           1.0000     1.0000     1.0000 O.3          1    LIG   0.0000
   6 C6           2.3498     1.0000     1.0000 C.ar         1    LIG   0.0000
   7 C7           3.0353     1.9223     0.2162 C.ar         1    LIG   0.0000
   8 C8           4.4265     1.9166     0.2237 C.ar         1    LIG   0.0000
   9 C9           5.1142     0.9963     1.0083 C.ar         1    LIG   0.0000
  10 N10          6.5148     0.9980     1.0080 N.pl3        1    LIG   0.0000
  11 C11          7.2149     1.2184     2.2006 C.ar         1    LIG   0.0000
  12 N12          6.5719     1.4304     3.3593 N.ar         1    LIG   0.0000
  13 C13          7.2376     1.6419     4.5046 C.ar         1    LIG   0.0000
  14 C14          8.6283     1.6488     4.5318 C.ar         1    LIG   0.0000
  15 C15          9.3207     1.4315     3.3453 C.ar         1    LIG   0.0000
  16 C16          8.6056     1.2149     2.1721 C.ar         1    LIG   0.0000
  17 Br17         9.5740     0.9085     0.4960 Br           1    LIG   0.0000
  18 C18          4.4199     0.0781     1.7887 C.ar         1    LIG   0.0000
  19 C19          3.0292     0.0764     1.7878 C.ar         1    LIG   0.0000
  20 H            0.8970     2.8896     0.3821 H            1    LIG   0.0000
  21 H           -0.2550     4.6040     3.3173 H            1    LIG   0.0000
  22 H            0.2492     4.8348     1.7813 H            1    LIG   0.0000
  23 H           -1.2024     4.1442     2.0692 H            1    LIG   0.0000
  24 H            1.3383     2.9375     2.7217 H            1    LIG   0.0000
  25 H           -0.1132     2.2469     3.0096 H            1    LIG   0.0000
  26 H           -1.4754     3.0587     0.4970 H            1    LIG   0.0000
  27 H           -1.0492     1.7790    -0.4235 H            1    LIG   0.0000
  28 H           -1.5533     1.5482     1.1125 H            1    LIG   0.0000
  29 H            2.5345     2.5810    -0.3454 H            1    LIG   0.0000
  30 H            4.9322     2.5741    -0.3349 H            1    LIG   0.0000
  31 H            7.0148     0.8418     0.1562 H            1    LIG   0.0000
  32 H            6.7270     1.7967     5.3504 H            1    LIG   0.0000
  33 H            9.1207     1.8070     5.3877 H            1    LIG   0.0000
  34 H           10.3206     1.4309     3.3358 H            1    LIG   0.0000
  35 H            4.9205    -0.5807     2.3504 H            1    LIG   0.0000
  36 H            2.5237    -0.5809     2.3467 H            1    LIG   0.0000
@<TRIPOS>BOND
   1        1        2 1
   2        2        3 1
   3        3        4 1
   4        3        5 1
   5        5        6 1
   6        6        7 ar
   7        7        8 ar
   8        8        9 ar
   9        9       10 1
  10       10       11 1
  11       11       12 ar
  12       12       13 ar
  13       13       14 ar
  14       14       15 ar
  15       15       16 ar
  16       16       11 ar
  17       16       17 1
  18        9       18 ar
  19       18       19 ar
  20       19        6 ar
  21        3       20 1
  22        1       21 1
  23        1       22 1
  24        1       23 1
  25        2       24 1
  26        2       25 1
  27        4       26 1
  28        4       27 1
  29        4       28 1
  30        7       29 1
  31        8       30 1
  32       10       31 1
  33       13       32 1
  34       14       33 1
  35       15       34 1
  36       18       35 1
  37       19       36 1

@<TRIPOS>MOLECULE

  36   37
SMALL
USER_CHARGES
@<TRIPOS>ATOM
   1 C1          -1.4747     3.6440     1.9046 C.3          1    LIG   0.0000
   2 C2          -0.8203     2.2721     1.9132 C.3          1    LIG   0.0000
   3 C3           0.3887     2.2816     0.9920 C.3          1    LIG   0.0000
   4 C4          -0.0541     2.6230    -0.4215 C.3          1    LIG   0.0000
   5 O5           1.0000     1.0000     1.0000 O.3          1    LIG   0.0000
   6 C6           2.3498     1.0000     1.0000 C.ar         1    LIG   0.0000
   7 C7           3.0353     1.9223     0.2162 C.ar         1    LIG   0.0000
   8 C8           4.4265     1.9166     0.2237 C.ar         1    LIG   0.0000
   9 C9           5.1142     0.9963     1.0083 C.ar         1    LIG   0.0000
  10 N10          6.5148     0.9980     1.0080 N.pl3        1    LIG   0.0000
  11 C11          7.2149     1.2184     2.2006 C.ar         1    LIG   0.0000
  12 N12          6.5719     1.4304     3.3593 N.ar         1    LIG   0.0000
  13 C13          7.2376     1.6419     4.5046 C.ar         1    LIG   0.0000
  14 C14          8.6283     1.6488     4.5318 C.ar         1    LIG   0.0000
  15 C15          9.3207     1.4315     3.3453 C.ar         1    LIG   0.0000
  16 C16          8.6056     1.2149     2.1721 C.ar         1    LIG   0.0000
  17 Br17         9.5740     0.9085     0.4960 Br           1    LIG   0.0000
  18 C18          4.4199     0.0781     1.7887 C.ar         1    LIG   0.0000
  19 C19          3.0292     0.0764     1.7878 C.ar         1    LIG   0.0000
  20 H            1.0448     2.9659     1.3102 H            1    LIG   0.0000
  21 H           -2.2701     3.6377     2.5107 H            1    LIG   0.0000
  22 H           -0.8185     4.3283     2.2228 H            1    LIG   0.0000
  23 H           -1.7660     3.8686     0.9747 H            1    LIG   0.0000
  24 H           -0.5290     2.0475     2.8431 H            1    LIG   0.0000
  25 H           -1.4764     1.5878     1.5950 H            1    LIG   0.0000
  26 H           -0.4846     3.5256    -0.4271 H            1    LIG   0.0000
  27 H            0.7413     2.6293    -1.0276 H            1    LIG   0.0000
  28 H           -0.7102     1.9387    -0.7397 H            1    LIG   0.0000
  29 H            2.5345     2.5810    -0.3454 H            1    LIG   0.0000
  30 H            4.9322     2.5741    -0.3349 H            1    LIG   0.0000
  31 H            7.0148     0.8418     0.1562 H            1    LIG   0.0000
  32 H            6.7270     1.7967     5.3504 H            1    LIG   0.0000
  33 H            9.1207     1.8070     5.3877 H            1    LIG   0.0000
  34 H           10.3206     1.4309     3.3358 H            1    LIG   0.0000
  35 H            4.9205    -0.5807     2.3504 H            1    LIG   0.0000
  36 H            2.5237    -0.5809     2.3467 H            1    LIG   0.0000
@<TRIPOS>BOND
   1        1        2 1
   2        2        3 1
   3        3        4 1
   4        3        5 1
   5        5        6 1
   6        6        7 ar
   7        7        8 ar
   8        8        9 ar
   9        9       10 1
  10       10       11 1
  11       11       12 ar
  12       12       13 ar
  13       13       14 ar
  14       14       15 ar
  15       15       16 ar
  16       16       11 ar
  17       16       17 1
  18        9       18 ar
  19       18       19 ar
  20       19        6 ar
  21        3       20 1
  22        1       21 1
  23        1       22 1
  24        1       23 1
  25        2       24 1
  26        2       25 1
  27        4       26 1
  28        4       27 1
  29        4       28 1
  30        7       29 1
  31        8       30 1
  32       10       31 1
  33       13       32 1
  34       14       33 1
  35       15       34 1
  36       18       35 1
  37       19       36 1

