@<TRIPOS>MOLECULE
*****
 36 37 0 0 0
SMALL
USER_CHARGES

@<TRIPOS>ATOM
      1 C1         -0.2592    4.2268    2.3911 C.3     1  LIG1        0.0000
      2 C2          0.3952    2.8549    2.3997 C.3     1  LIG1        0.0000
      3 C3          0.3887    2.2816    0.9920 C.3     1  LIG1        0.0000
      4 C4         -1.0449    2.1561    0.5026 C.3     1  LIG1        0.0000
      5 O5          1.0000    1.0000    1.0000 O.3     1  LIG1        0.0000
      6 C6          2.3498    1.0000    1.0000 C.ar    1  LIG1        0.0000
      7 C7          3.0353    1.9223    0.2162 C.ar    1  LIG1        0.0000
      8 C8          4.4265    1.9166    0.2237 C.ar    1  LIG1        0.0000
      9 C9          5.1142    0.9963    1.0083 C.ar    1  LIG1        0.0000
     10 N10         6.5148    0.9980    1.0080 N.pl3   1  LIG1        0.0000
     11 C11         7.2149    1.2184    2.2006 C.ar    1  LIG1        0.0000
     12 N12         6.5719    1.4304    3.3593 N.ar    1  LIG1        0.0000
     13 C13         7.2376    1.6419    4.5046 C.ar    1  LIG1        0.0000
     14 C14         8.6283    1.6488    4.5318 C.ar    1  LIG1        0.0000
     15 C15         9.3207    1.4315    3.3453 C.ar    1  LIG1        0.0000
     16 C16         8.6056    1.2149    2.1721 C.ar    1  LIG1        0.0000
     17 Br17        9.5740    0.9085    0.4960 Br      1  LIG1        0.0000
     18 C18         4.4199    0.0781    1.7887 C.ar    1  LIG1        0.0000
     19 C19         3.0292    0.0764    1.7878 C.ar    1  LIG1        0.0000
     20 H           0.8970    2.8896    0.3821 H       1  LIG1        0.0000
     21 H          -0.2550    4.6040    3.3173 H       1  LIG1        0.0000
     22 H           0.2492    4.8348    1.7813 H       1  LIG1        0.0000
     23 H          -1.2024    4.1442    2.0692 H       1  LIG1        0.0000
     24 H           1.3383    2.9375    2.7217 H       1  LIG1        0.0000
     25 H          -0.1132    2.2469    3.0096 H       1  LIG1        0.0000
     26 H          -1.4754    3.0587    0.4970 H       1  LIG1        0.0000
     27 H          -1.0492    1.7790   -0.4235 H       1  LIG1        0.0000
     28 H          -1.5533    1.5482    1.1125 H       1  LIG1        0.0000
     29 H           2.5345    2.5810   -0.3454 H       1  LIG1        0.0000
     30 H           4.9322    2.5741   -0.3349 H       1  LIG1        0.0000
     31 H           7.0148    0.8418    0.1562 H       1  LIG1        0.0000
     32 H           6.7270    1.7967    5.3504 H       1  LIG1        0.0000
     33 H           9.1207    1.8070    5.3877 H       1  LIG1        0.0000
     34 H          10.3206    1.4309    3.3358 H       1  LIG1        0.0000
     35 H           4.9205   -0.5807    2.3504 H       1  LIG1        0.0000
     36 H           2.5237   -0.5809    2.3467 H       1  LIG1        0.0000
@<TRIPOS>BOND
     1     1     2    1
     2     2     3    1
     3     3     4    1
     4     3     5    1
     5     5     6    1
     6     6     7   ar
     7     7     8   ar
     8     8     9   ar
     9     9    10    1
    10    10    11    1
    11    11    12   ar
    12    12    13   ar
    13    13    14   ar
    14    14    15   ar
    15    15    16   ar
    16    16    11   ar
    17    16    17    1
    18     9    18   ar
    19    18    19   ar
    20    19     6   ar
    21     3    20    1
    22     1    21    1
    23     1    22    1
    24     1    23    1
    25     2    24    1
    26     2    25    1
    27     4    26    1
    28     4    27    1
    29     4    28    1
    30     7    29    1
    31     8    30    1
    32    10    31    1
    33    13    32    1
    34    14    33    1
    35    15    34    1
    36    18    35    1
    37    19    36    1
