@<TRIPOS>MOLECULE
*****
 36 37 0 0 0
SMALL
USER_CHARGES

@<TRIPOS>ATOM
      1 C1         -1.6993    3.5342    1.4743 C.3     1  LIG1        0.0000
      2 C2         -1.0449    2.1623    1.4829 C.3     1  LIG1        0.0000
      3 C3          0.3887    2.2816    0.9920 C.3     1  LIG1        0.0000
      4 C4          0.3952    2.8372   -0.4228 C.3     1  LIG1        0.0000
      5 O5          1.0000    1.0000    1.0000 O.3     1  LIG1        0.0000
      6 C6          2.3498    1.0000    1.0000 C.ar    1  LIG1        0.0000
      7 C7          3.0353    1.9321    1.7722 C.ar    1  LIG1        0.0000
      8 C8          4.4265    1.9237    1.7679 C.ar    1  LIG1        0.0000
      9 C9          5.1142    0.9912    0.9978 C.ar    1  LIG1        0.0000
     10 N10         6.5148    0.9918    0.9994 N.pl3   1  LIG1        0.0000
     11 C11         7.2163    1.1937   -0.1956 C.ar    1  LIG1        0.0000
     12 N12         6.5745    1.3897   -1.3579 N.ar    1  LIG1        0.0000
     13 C13         7.2415    1.5838   -2.5055 C.ar    1  LIG1        0.0000
     14 C14         8.6323    1.5889   -2.5315 C.ar    1  LIG1        0.0000
     15 C15         9.3233    1.3885   -1.3413 C.ar    1  LIG1        0.0000
     16 C16         8.6069    1.1895   -0.1658 C.ar    1  LIG1        0.0000
     17 Br17        9.5734    0.9058    1.5154 Br      1  LIG1        0.0000
     18 C18         4.4199    0.0632    0.2291 C.ar    1  LIG1        0.0000
     19 C19         3.0292    0.0638    0.2272 C.ar    1  LIG1        0.0000
     20 H           0.8970    2.8972    1.5942 H       1  LIG1        0.0000
     21 H          -2.6424    3.4557    1.7972 H       1  LIG1        0.0000
     22 H          -1.1909    4.1498    2.0765 H       1  LIG1        0.0000
     23 H          -1.6950    3.8997    0.5435 H       1  LIG1        0.0000
     24 H          -1.0492    1.7968    2.4137 H       1  LIG1        0.0000
     25 H          -1.5533    1.5467    0.8807 H       1  LIG1        0.0000
     26 H          -0.0354    3.7398   -0.4285 H       1  LIG1        0.0000
     27 H           1.3383    2.9158   -0.7458 H       1  LIG1        0.0000
     28 H          -0.1132    2.2217   -1.0250 H       1  LIG1        0.0000
     29 H           2.5345    2.5995    2.3234 H       1  LIG1        0.0000
     30 H           4.9322    2.5880    2.3183 H       1  LIG1        0.0000
     31 H           7.0138    0.8480    1.8540 H       1  LIG1        0.0000
     32 H           6.7319    1.7268   -3.3540 H       1  LIG1        0.0000
     33 H           9.1256    1.7338   -3.3892 H       1  LIG1        0.0000
     34 H          10.3232    1.3874   -1.3308 H       1  LIG1        0.0000
     35 H           4.9205   -0.6043   -0.3222 H       1  LIG1        0.0000
     36 H           2.5237   -0.6008   -0.3230 H       1  LIG1        0.0000
@<TRIPOS>BOND
     1     1     2    1
     2     2     3    1
     3     3     4    1
     4     3     5    1
     5     5     6    1
     6     6     7   ar
     7     7     8   ar
     8     8     9   ar
     9     9    10    1
    10    10    11    1
    11    11    12   ar
    12    12    13   ar
    13    13    14   ar
    14    14    15   ar
    15    15    16   ar
    16    16    11   ar
    17    16    17    1
    18     9    18   ar
    19    18    19   ar
    20    19     6   ar
    21     3    20    1
    22     1    21    1
    23     1    22    1
    24     1    23    1
    25     2    24    1
    26     2    25    1
    27     4    26    1
    28     4    27    1
    29     4    28    1
    30     7    29    1
    31     8    30    1
    32    10    31    1
    33    13    32    1
    34    14    33    1
    35    15    34    1
    36    18    35    1
    37    19    36    1
