@<TRIPOS>MOLECULE
*****
 36 37 0 0 0
SMALL
USER_CHARGES

@<TRIPOS>ATOM
      1 C1         -1.4747    3.6440    1.9046 C.3     1  LIG1        0.0000
      2 C2         -0.8203    2.2721    1.9132 C.3     1  LIG1        0.0000
      3 C3          0.3887    2.2816    0.9920 C.3     1  LIG1        0.0000
      4 C4         -0.0541    2.6230   -0.4215 C.3     1  LIG1        0.0000
      5 O5          1.0000    1.0000    1.0000 O.3     1  LIG1        0.0000
      6 C6          2.3498    1.0000    1.0000 C.ar    1  LIG1        0.0000
      7 C7          3.0353    1.9223    0.2162 C.ar    1  LIG1        0.0000
      8 C8          4.4265    1.9166    0.2237 C.ar    1  LIG1        0.0000
      9 C9          5.1142    0.9963    1.0083 C.ar    1  LIG1        0.0000
     10 N10         6.5148    0.9980    1.0080 N.pl3   1  LIG1        0.0000
     11 C11         7.2163   -0.1438    0.6016 C.ar    1  LIG1        0.0000
     12 N12         6.5745   -1.2544    0.2068 N.ar    1  LIG1        0.0000
     13 C13         7.2415   -2.3509   -0.1837 C.ar    1  LIG1        0.0000
     14 C14         8.6323   -2.3756   -0.1932 C.ar    1  LIG1        0.0000
     15 C15         9.3233   -1.2383    0.2109 C.ar    1  LIG1        0.0000
     16 C16         8.6069   -0.1152    0.6109 C.ar    1  LIG1        0.0000
     17 Br17        9.5734    1.4912    1.1823 Br      1  LIG1        0.0000
     18 C18         4.4199    0.0781    1.7887 C.ar    1  LIG1        0.0000
     19 C19         3.0292    0.0764    1.7878 C.ar    1  LIG1        0.0000
     20 H           1.0448    2.9659    1.3102 H       1  LIG1        0.0000
     21 H          -2.2701    3.6377    2.5107 H       1  LIG1        0.0000
     22 H          -0.8185    4.3283    2.2228 H       1  LIG1        0.0000
     23 H          -1.7660    3.8686    0.9747 H       1  LIG1        0.0000
     24 H          -0.5290    2.0475    2.8431 H       1  LIG1        0.0000
     25 H          -1.4764    1.5878    1.5950 H       1  LIG1        0.0000
     26 H          -0.4846    3.5256   -0.4271 H       1  LIG1        0.0000
     27 H           0.7413    2.6293   -1.0276 H       1  LIG1        0.0000
     28 H          -0.7102    1.9387   -0.7397 H       1  LIG1        0.0000
     29 H           2.5345    2.5810   -0.3454 H       1  LIG1        0.0000
     30 H           4.9322    2.5741   -0.3349 H       1  LIG1        0.0000
     31 H           7.0138    1.8146    1.2980 H       1  LIG1        0.0000
     32 H           6.7319   -3.1616   -0.4718 H       1  LIG1        0.0000
     33 H           9.1256   -3.1951   -0.4849 H       1  LIG1        0.0000
     34 H          10.3232   -1.2281    0.2138 H       1  LIG1        0.0000
     35 H           4.9205   -0.5807    2.3504 H       1  LIG1        0.0000
     36 H           2.5237   -0.5809    2.3467 H       1  LIG1        0.0000
@<TRIPOS>BOND
     1     1     2    1
     2     2     3    1
     3     3     4    1
     4     3     5    1
     5     5     6    1
     6     6     7   ar
     7     7     8   ar
     8     8     9   ar
     9     9    10    1
    10    10    11    1
    11    11    12   ar
    12    12    13   ar
    13    13    14   ar
    14    14    15   ar
    15    15    16   ar
    16    16    11   ar
    17    16    17    1
    18     9    18   ar
    19    18    19   ar
    20    19     6   ar
    21     3    20    1
    22     1    21    1
    23     1    22    1
    24     1    23    1
    25     2    24    1
    26     2    25    1
    27     4    26    1
    28     4    27    1
    29     4    28    1
    30     7    29    1
    31     8    30    1
    32    10    31    1
    33    13    32    1
    34    14    33    1
    35    15    34    1
    36    18    35    1
    37    19    36    1
