@<TRIPOS>MOLECULE
*****
 24 26 0 0 0
SMALL
USER_CHARGES

@<TRIPOS>ATOM
      1 F1          1.2264   -2.0088   -0.0168 F       1  LIG1        0.0000
      2 C2          1.2085   -0.6787   -0.0106 C.ar    1  LIG1        0.0000
      3 C3         -0.0114   -0.0106    0.0032 C.ar    1  LIG1        0.0000
      4 C4         -0.0220    1.3806    0.0095 C.ar    1  LIG1        0.0000
      5 F5         -1.1843    2.0272    0.0236 F       1  LIG1        0.0000
      6 C6          1.1718    2.0954    0.0010 C.ar    1  LIG1        0.0000
      7 C7          1.1487    3.5459    0.0074 C.2     1  LIG1        0.0000
      8 C8          1.1268    4.1887   -1.2031 C.2     1  LIG1        0.0000
      9 N9          1.1047    5.5595   -1.2230 N.2     1  LIG1        0.0000
     10 C10         1.1033    6.2620   -0.1031 C.2     1  LIG1        0.0000
     11 C11         1.1253    5.6201    1.1650 C.2     1  LIG1        0.0000
     12 N12         1.1292    6.0892    2.3931 N.2     1  LIG1        0.0000
     13 C13         1.1529    5.0287    3.2507 C.2     1  LIG1        0.0000
     14 C14         1.1658    3.8955    2.4927 C.2     1  LIG1        0.0000
     15 N15         1.1479    4.2648    1.1784 N.pl3   1  LIG1        0.0000
     16 C16         2.3830    1.4116   -0.0131 C.ar    1  LIG1        0.0000
     17 F17         3.5287    2.0879   -0.0210 F       1  LIG1        0.0000
     18 C18         2.4109    0.0209   -0.0189 C.ar    1  LIG1        0.0000
     19 H          -0.8698   -0.5236    0.0085 H       1  LIG1        0.0000
     20 H           1.1269    3.6672   -2.0563 H       1  LIG1        0.0000
     21 H           1.0865    7.2609   -0.1488 H       1  LIG1        0.0000
     22 H           1.1596    5.0740    4.2496 H       1  LIG1        0.0000
     23 H           1.1850    2.9576    2.8389 H       1  LIG1        0.0000
     24 H           3.2827   -0.4690   -0.0289 H       1  LIG1        0.0000
@<TRIPOS>BOND
     1     1     2    1
     2     2     3   ar
     3     3     4   ar
     4     4     5    1
     5     4     6   ar
     6     6     7    1
     7     7     8    2
     8     8     9    1
     9     9    10    2
    10    10    11    1
    11    11    12    2
    12    12    13    1
    13    13    14    2
    14    14    15    1
    15    15     7    1
    16    15    11    1
    17     6    16   ar
    18    16    17    1
    19    16    18   ar
    20    18     2   ar
    21     3    19    1
    22     8    20    1
    23    10    21    1
    24    13    22    1
    25    14    23    1
    26    18    24    1
