@<TRIPOS>MOLECULE
*****
 24 26 0 0 0
SMALL
USER_CHARGES

@<TRIPOS>ATOM
      1 F1          1.2264   -2.0088   -0.0168 F       1  LIG1        0.0000
      2 C2          1.2085   -0.6787   -0.0106 C.ar    1  LIG1        0.0000
      3 C3         -0.0114   -0.0106    0.0032 C.ar    1  LIG1        0.0000
      4 C4         -0.0220    1.3806    0.0095 C.ar    1  LIG1        0.0000
      5 F5         -1.1843    2.0272    0.0236 F       1  LIG1        0.0000
      6 C6          1.1718    2.0954    0.0010 C.ar    1  LIG1        0.0000
      7 C7          1.1487    3.5459    0.0074 C.2     1  LIG1        0.0000
      8 C8          0.3497    4.1750   -0.9117 C.2     1  LIG1        0.0000
      9 N9          0.3109    5.5455   -0.9253 N.2     1  LIG1        0.0000
     10 C10         1.0250    6.2607   -0.0730 C.2     1  LIG1        0.0000
     11 C11         1.8611    5.6331    0.8902 C.2     1  LIG1        0.0000
     12 N12         2.6502    6.1159    1.8242 N.2     1  LIG1        0.0000
     13 C13         3.2265    5.0652    2.4756 C.2     1  LIG1        0.0000
     14 C14         2.7567    3.9235    1.8971 C.2     1  LIG1        0.0000
     15 N15         1.8959    4.2779    0.8984 N.pl3   1  LIG1        0.0000
     16 C16         2.3830    1.4116   -0.0131 C.ar    1  LIG1        0.0000
     17 F17         3.5287    2.0879   -0.0210 F       1  LIG1        0.0000
     18 C18         2.4109    0.0209   -0.0189 C.ar    1  LIG1        0.0000
     19 H          -0.8698   -0.5236    0.0085 H       1  LIG1        0.0000
     20 H          -0.1952    3.6440   -1.5606 H       1  LIG1        0.0000
     21 H           0.9761    7.2589   -0.1064 H       1  LIG1        0.0000
     22 H           3.8734    5.1217    3.2361 H       1  LIG1        0.0000
     23 H           3.0002    2.9895    2.1586 H       1  LIG1        0.0000
     24 H           3.2827   -0.4690   -0.0289 H       1  LIG1        0.0000
@<TRIPOS>BOND
     1     1     2    1
     2     2     3   ar
     3     3     4   ar
     4     4     5    1
     5     4     6   ar
     6     6     7    1
     7     7     8    2
     8     8     9    1
     9     9    10    2
    10    10    11    1
    11    11    12    2
    12    12    13    1
    13    13    14    2
    14    14    15    1
    15    15     7    1
    16    15    11    1
    17     6    16   ar
    18    16    17    1
    19    16    18   ar
    20    18     2   ar
    21     3    19    1
    22     8    20    1
    23    10    21    1
    24    13    22    1
    25    14    23    1
    26    18    24    1
