@<TRIPOS>MOLECULE

  30   31
SMALL
USER_CHARGES
@<TRIPOS>ATOM
   1 C1          -0.1279     4.0461     0.0242 C.3          1    LIG   0.0000
   2 O2           1.1523     3.4319     0.0086 O.3          1    LIG   0.0000
   3 C3           1.1492     2.0799     0.0028 C.ar         1    LIG   0.0000
   4 C4           2.3743     1.4226    -0.0123 C.ar         1    LIG   0.0000
   5 C5           2.3920     0.0318    -0.0185 C.ar         1    LIG   0.0000
   6 C6           1.1967    -0.6790    -0.0107 C.ar         1    LIG   0.0000
   7 F7           1.2264    -2.0088    -0.0168 F            1    LIG   0.0000
   8 C8          -0.0085     0.0160     0.0037 C.ar         1    LIG   0.0000
   9 N9          -1.2016    -0.7201     0.0086 N.pl3        1    LIG   0.0000
  10 C10         -2.1523    -0.5716     1.1199 C.3          1    LIG   0.0000
  11 C11         -1.5020    -1.6404    -1.0977 C.3          1    LIG   0.0000
  12 C12         -1.4116    -3.0753    -0.6021 C.2          1    LIG   0.0000
  13 C13         -2.4321    -3.8045    -0.0747 C.2          1    LIG   0.0000
  14 C14         -1.8875    -5.0685     0.2399 C.2          1    LIG   0.0000
  15 N15         -0.6237    -5.0234    -0.1052 N.2          1    LIG   0.0000
  16 N16         -0.2935    -3.8567    -0.6105 N.pl3        1    LIG   0.0000
  17 N17          0.0122     1.3610     0.0098 N.ar         1    LIG   0.0000
  18 H            0.6120    -3.5902    -0.9408 H            1    LIG   0.0000
  19 H           -0.0206     5.0403     0.0273 H            1    LIG   0.0000
  20 H           -0.6406     3.7688    -0.7884 H            1    LIG   0.0000
  21 H           -0.6241     3.7617     0.8445 H            1    LIG   0.0000
  22 H            3.2291     1.9415    -0.0187 H            1    LIG   0.0000
  23 H            3.2643    -0.4570    -0.0285 H            1    LIG   0.0000
  24 H           -2.9424    -1.1645     0.9641 H            1    LIG   0.0000
  25 H           -1.7061    -0.8292     1.9769 H            1    LIG   0.0000
  26 H           -2.4552     0.3798     1.1746 H            1    LIG   0.0000
  27 H           -0.8423    -1.5005    -1.8361 H            1    LIG   0.0000
  28 H           -2.4255    -1.4627    -1.4377 H            1    LIG   0.0000
  29 H           -3.3765    -3.5056     0.0623 H            1    LIG   0.0000
  30 H           -2.3703    -5.8446     0.6456 H            1    LIG   0.0000
@<TRIPOS>BOND
   1        1        2 1
   2        2        3 1
   3        3        4 ar
   4        4        5 ar
   5        5        6 ar
   6        6        7 1
   7        6        8 ar
   8        8        9 1
   9        9       10 1
  10        9       11 1
  11       11       12 1
  12       12       13 2
  13       13       14 1
  14       14       15 2
  15       15       16 1
  16       16       12 1
  17        8       17 ar
  18       17        3 ar
  19       16       18 1
  20        1       19 1
  21        1       20 1
  22        1       21 1
  23        4       22 1
  24        5       23 1
  25       10       24 1
  26       10       25 1
  27       10       26 1
  28       11       27 1
  29       11       28 1
  30       13       29 1
  31       14       30 1

@<TRIPOS>MOLECULE

  30   31
SMALL
USER_CHARGES
@<TRIPOS>ATOM
   1 C1          -0.1279     4.0461     0.0242 C.3          1    LIG   0.0000
   2 O2           1.1523     3.4319     0.0086 O.3          1    LIG   0.0000
   3 C3           1.1492     2.0799     0.0028 C.ar         1    LIG   0.0000
   4 C4           2.3743     1.4226    -0.0123 C.ar         1    LIG   0.0000
   5 C5           2.3920     0.0318    -0.0185 C.ar         1    LIG   0.0000
   6 C6           1.1967    -0.6790    -0.0107 C.ar         1    LIG   0.0000
   7 F7           1.2264    -2.0088    -0.0168 F            1    LIG   0.0000
   8 C8          -0.0085     0.0160     0.0037 C.ar         1    LIG   0.0000
   9 N9          -1.2016    -0.7201     0.0086 N.pl3        1    LIG   0.0000
  10 C10         -2.1523    -0.5716     1.1199 C.3          1    LIG   0.0000
  11 C11         -1.5020    -1.6404    -1.0977 C.3          1    LIG   0.0000
  12 C12         -2.0380    -0.8513    -2.2822 C.2          1    LIG   0.0000
  13 C13         -1.2943    -0.3144    -3.2871 C.2          1    LIG   0.0000
  14 C14         -2.2098     0.3196    -4.1550 C.2          1    LIG   0.0000
  15 N15         -3.4001     0.1311    -3.6394 N.2          1    LIG   0.0000
  16 N16         -3.3486    -0.5600    -2.5235 N.pl3        1    LIG   0.0000
  17 N17          0.0122     1.3610     0.0098 N.ar         1    LIG   0.0000
  18 H           -4.1277    -0.8242    -1.9549 H            1    LIG   0.0000
  19 H           -0.0206     5.0403     0.0273 H            1    LIG   0.0000
  20 H           -0.6406     3.7688    -0.7884 H            1    LIG   0.0000
  21 H           -0.6241     3.7617     0.8445 H            1    LIG   0.0000
  22 H            3.2291     1.9415    -0.0187 H            1    LIG   0.0000
  23 H            3.2643    -0.4570    -0.0285 H            1    LIG   0.0000
  24 H           -2.9424    -1.1645     0.9641 H            1    LIG   0.0000
  25 H           -1.7061    -0.8292     1.9769 H            1    LIG   0.0000
  26 H           -2.4552     0.3798     1.1746 H            1    LIG   0.0000
  27 H           -2.1883    -2.3047    -0.8016 H            1    LIG   0.0000
  28 H           -0.6675    -2.1209    -1.3674 H            1    LIG   0.0000
  29 H           -0.3006    -0.3596    -3.3900 H            1    LIG   0.0000
  30 H           -1.9931     0.8145    -4.9965 H            1    LIG   0.0000
@<TRIPOS>BOND
   1        1        2 1
   2        2        3 1
   3        3        4 ar
   4        4        5 ar
   5        5        6 ar
   6        6        7 1
   7        6        8 ar
   8        8        9 1
   9        9       10 1
  10        9       11 1
  11       11       12 1
  12       12       13 2
  13       13       14 1
  14       14       15 2
  15       15       16 1
  16       16       12 1
  17        8       17 ar
  18       17        3 ar
  19       16       18 1
  20        1       19 1
  21        1       20 1
  22        1       21 1
  23        4       22 1
  24        5       23 1
  25       10       24 1
  26       10       25 1
  27       10       26 1
  28       11       27 1
  29       11       28 1
  30       13       29 1
  31       14       30 1

@<TRIPOS>MOLECULE

  30   31
SMALL
USER_CHARGES
@<TRIPOS>ATOM
   1 C1          -0.1279     4.0461     0.0242 C.3          1    LIG   0.0000
   2 O2           1.1523     3.4319     0.0086 O.3          1    LIG   0.0000
   3 C3           1.1492     2.0799     0.0028 C.ar         1    LIG   0.0000
   4 C4           2.3743     1.4226    -0.0123 C.ar         1    LIG   0.0000
   5 C5           2.3920     0.0318    -0.0185 C.ar         1    LIG   0.0000
   6 C6           1.1967    -0.6790    -0.0107 C.ar         1    LIG   0.0000
   7 F7           1.2264    -2.0088    -0.0168 F            1    LIG   0.0000
   8 C8          -0.0085     0.0160     0.0037 C.ar         1    LIG   0.0000
   9 N9          -1.2016    -0.7201     0.0086 N.pl3        1    LIG   0.0000
  10 C10         -1.4840    -1.6551     1.1072 C.3          1    LIG   0.0000
  11 C11         -2.1703    -0.5569    -1.0850 C.3          1    LIG   0.0000
  12 C12         -1.7182    -1.3698    -2.2882 C.2          1    LIG   0.0000
  13 C13         -2.0491    -2.6637    -2.5485 C.2          1    LIG   0.0000
  14 C14         -1.4077    -2.9945    -3.7620 C.2          1    LIG   0.0000
  15 N15         -0.7576    -1.9215    -4.1417 N.2          1    LIG   0.0000
  16 N16         -0.9116    -0.9284    -3.2958 N.pl3        1    LIG   0.0000
  17 N17          0.0122     1.3610     0.0098 N.ar         1    LIG   0.0000
  18 H           -0.5108    -0.0157    -3.3759 H            1    LIG   0.0000
  19 H           -0.0206     5.0403     0.0273 H            1    LIG   0.0000
  20 H           -0.6406     3.7688    -0.7884 H            1    LIG   0.0000
  21 H           -0.6241     3.7617     0.8445 H            1    LIG   0.0000
  22 H            3.2291     1.9415    -0.0187 H            1    LIG   0.0000
  23 H            3.2643    -0.4570    -0.0285 H            1    LIG   0.0000
  24 H           -2.3700    -2.0925     0.9533 H            1    LIG   0.0000
  25 H           -0.7691    -2.3534     1.1426 H            1    LIG   0.0000
  26 H           -1.5049    -1.1553     1.9731 H            1    LIG   0.0000
  27 H           -2.2281     0.4088    -1.3378 H            1    LIG   0.0000
  28 H           -3.0689    -0.8773    -0.7849 H            1    LIG   0.0000
  29 H           -2.6290    -3.2595    -1.9930 H            1    LIG   0.0000
  30 H           -1.4424    -3.8735    -4.2376 H            1    LIG   0.0000
@<TRIPOS>BOND
   1        1        2 1
   2        2        3 1
   3        3        4 ar
   4        4        5 ar
   5        5        6 ar
   6        6        7 1
   7        6        8 ar
   8        8        9 1
   9        9       10 1
  10        9       11 1
  11       11       12 1
  12       12       13 2
  13       13       14 1
  14       14       15 2
  15       15       16 1
  16       16       12 1
  17        8       17 ar
  18       17        3 ar
  19       16       18 1
  20        1       19 1
  21        1       20 1
  22        1       21 1
  23        4       22 1
  24        5       23 1
  25       10       24 1
  26       10       25 1
  27       10       26 1
  28       11       27 1
  29       11       28 1
  30       13       29 1
  31       14       30 1

@<TRIPOS>MOLECULE

  30   31
SMALL
USER_CHARGES
@<TRIPOS>ATOM
   1 C1           2.4353     4.0404    -0.0017 C.3          1    LIG   0.0000
   2 O2           1.1523     3.4319     0.0086 O.3          1    LIG   0.0000
   3 C3           1.1492     2.0799     0.0028 C.ar         1    LIG   0.0000
   4 C4           2.3743     1.4226    -0.0123 C.ar         1    LIG   0.0000
   5 C5           2.3920     0.0318    -0.0185 C.ar         1    LIG   0.0000
   6 C6           1.1967    -0.6790    -0.0107 C.ar         1    LIG   0.0000
   7 F7           1.2264    -2.0088    -0.0168 F            1    LIG   0.0000
   8 C8          -0.0085     0.0160     0.0037 C.ar         1    LIG   0.0000
   9 N9          -1.2016    -0.7201     0.0086 N.pl3        1    LIG   0.0000
  10 C10         -1.4840    -1.6551     1.1072 C.3          1    LIG   0.0000
  11 C11         -2.1703    -0.5569    -1.0850 C.3          1    LIG   0.0000
  12 C12         -3.4069     0.1591    -0.5643 C.2          1    LIG   0.0000
  13 C13         -4.5094    -0.4345    -0.0320 C.2          1    LIG   0.0000
  14 C14         -5.3905     0.6139     0.3112 C.2          1    LIG   0.0000
  15 N15         -4.7869     1.7288    -0.0217 N.2          1    LIG   0.0000
  16 N16         -3.6034     1.5089    -0.5477 N.pl3        1    LIG   0.0000
  17 N17          0.0122     1.3610     0.0098 N.ar         1    LIG   0.0000
  18 H           -2.9637     2.2039    -0.8760 H            1    LIG   0.0000
  19 H            2.3325     5.0351     0.0036 H            1    LIG   0.0000
  20 H            2.9466     3.7537     0.8085 H            1    LIG   0.0000
  21 H            2.9302     3.7608    -0.8244 H            1    LIG   0.0000
  22 H            3.2291     1.9415    -0.0187 H            1    LIG   0.0000
  23 H            3.2643    -0.4570    -0.0285 H            1    LIG   0.0000
  24 H           -2.3700    -2.0925     0.9533 H            1    LIG   0.0000
  25 H           -0.7691    -2.3534     1.1426 H            1    LIG   0.0000
  26 H           -1.5049    -1.1553     1.9731 H            1    LIG   0.0000
  27 H           -2.4296    -1.4561    -1.4376 H            1    LIG   0.0000
  28 H           -1.7570    -0.0176    -1.8187 H            1    LIG   0.0000
  29 H           -4.6642    -1.4148     0.0912 H            1    LIG   0.0000
  30 H           -6.2959     0.5237     0.7261 H            1    LIG   0.0000
@<TRIPOS>BOND
   1        1        2 1
   2        2        3 1
   3        3        4 ar
   4        4        5 ar
   5        5        6 ar
   6        6        7 1
   7        6        8 ar
   8        8        9 1
   9        9       10 1
  10        9       11 1
  11       11       12 1
  12       12       13 2
  13       13       14 1
  14       14       15 2
  15       15       16 1
  16       16       12 1
  17        8       17 ar
  18       17        3 ar
  19       16       18 1
  20        1       19 1
  21        1       20 1
  22        1       21 1
  23        4       22 1
  24        5       23 1
  25       10       24 1
  26       10       25 1
  27       10       26 1
  28       11       27 1
  29       11       28 1
  30       13       29 1
  31       14       30 1

@<TRIPOS>MOLECULE

  30   31
SMALL
USER_CHARGES
@<TRIPOS>ATOM
   1 C1           2.4353     4.0404    -0.0017 C.3          1    LIG   0.0000
   2 O2           1.1523     3.4319     0.0086 O.3          1    LIG   0.0000
   3 C3           1.1492     2.0799     0.0028 C.ar         1    LIG   0.0000
   4 C4           2.3743     1.4226    -0.0123 C.ar         1    LIG   0.0000
   5 C5           2.3920     0.0318    -0.0185 C.ar         1    LIG   0.0000
   6 C6           1.1967    -0.6790    -0.0107 C.ar         1    LIG   0.0000
   7 F7           1.2264    -2.0088    -0.0168 F            1    LIG   0.0000
   8 C8          -0.0085     0.0160     0.0037 C.ar         1    LIG   0.0000
   9 N9          -1.2016    -0.7201     0.0086 N.pl3        1    LIG   0.0000
  10 C10         -1.1588    -2.1894    -0.0016 C.3          1    LIG   0.0000
  11 C11         -2.4955    -0.0226     0.0238 C.3          1    LIG   0.0000
  12 C12         -2.8351     0.4465    -1.3825 C.2          1    LIG   0.0000
  13 C13         -2.4958     1.6457    -1.9286 C.2          1    LIG   0.0000
  14 C14         -3.0167     1.6388    -3.2408 C.2          1    LIG   0.0000
  15 N15         -3.6124     0.4816    -3.3967 N.2          1    LIG   0.0000
  16 N16         -3.5315    -0.2622    -2.3170 N.pl3        1    LIG   0.0000
  17 N17          0.0122     1.3610     0.0098 N.ar         1    LIG   0.0000
  18 H           -3.9111    -1.1801    -2.2014 H            1    LIG   0.0000
  19 H            2.3325     5.0351     0.0036 H            1    LIG   0.0000
  20 H            2.9466     3.7537     0.8085 H            1    LIG   0.0000
  21 H            2.9302     3.7608    -0.8244 H            1    LIG   0.0000
  22 H            3.2291     1.9415    -0.0187 H            1    LIG   0.0000
  23 H            3.2643    -0.4570    -0.0285 H            1    LIG   0.0000
  24 H           -2.0915    -2.5501     0.0036 H            1    LIG   0.0000
  25 H           -0.6846    -2.5034    -0.8241 H            1    LIG   0.0000
  26 H           -0.6713    -2.5143     0.8088 H            1    LIG   0.0000
  27 H           -2.4412     0.7673     0.6347 H            1    LIG   0.0000
  28 H           -3.2067    -0.6464     0.3479 H            1    LIG   0.0000
  29 H           -1.9816     2.3825    -1.4896 H            1    LIG   0.0000
  30 H           -2.9454     2.3717    -3.9174 H            1    LIG   0.0000
@<TRIPOS>BOND
   1        1        2 1
   2        2        3 1
   3        3        4 ar
   4        4        5 ar
   5        5        6 ar
   6        6        7 1
   7        6        8 ar
   8        8        9 1
   9        9       10 1
  10        9       11 1
  11       11       12 1
  12       12       13 2
  13       13       14 1
  14       14       15 2
  15       15       16 1
  16       16       12 1
  17        8       17 ar
  18       17        3 ar
  19       16       18 1
  20        1       19 1
  21        1       20 1
  22        1       21 1
  23        4       22 1
  24        5       23 1
  25       10       24 1
  26       10       25 1
  27       10       26 1
  28       11       27 1
  29       11       28 1
  30       13       29 1
  31       14       30 1

@<TRIPOS>MOLECULE

  30   31
SMALL
USER_CHARGES
@<TRIPOS>ATOM
   1 C1           2.4353     4.0404    -0.0017 C.3          1    LIG   0.0000
   2 O2           1.1523     3.4319     0.0086 O.3          1    LIG   0.0000
   3 C3           1.1492     2.0799     0.0028 C.ar         1    LIG   0.0000
   4 C4           2.3743     1.4226    -0.0123 C.ar         1    LIG   0.0000
   5 C5           2.3920     0.0318    -0.0185 C.ar         1    LIG   0.0000
   6 C6           1.1967    -0.6790    -0.0107 C.ar         1    LIG   0.0000
   7 F7           1.2264    -2.0088    -0.0168 F            1    LIG   0.0000
   8 C8          -0.0085     0.0160     0.0037 C.ar         1    LIG   0.0000
   9 N9          -1.2016    -0.7201     0.0086 N.pl3        1    LIG   0.0000
  10 C10         -1.1588    -2.1894    -0.0016 C.3          1    LIG   0.0000
  11 C11         -2.4955    -0.0226     0.0238 C.3          1    LIG   0.0000
  12 C12         -2.8120     0.4277     1.4415 C.2          1    LIG   0.0000
  13 C13         -2.4668     1.6210     1.9968 C.2          1    LIG   0.0000
  14 C14         -2.9678     1.5973     3.3166 C.2          1    LIG   0.0000
  15 N15         -3.5606     0.4379     3.4669 N.2          1    LIG   0.0000
  16 N16         -3.4932    -0.2935     2.3778 N.pl3        1    LIG   0.0000
  17 N17          0.0122     1.3610     0.0098 N.ar         1    LIG   0.0000
  18 H           -3.8719    -1.2111     2.2572 H            1    LIG   0.0000
  19 H            2.3325     5.0351     0.0036 H            1    LIG   0.0000
  20 H            2.9466     3.7537     0.8085 H            1    LIG   0.0000
  21 H            2.9302     3.7608    -0.8244 H            1    LIG   0.0000
  22 H            3.2291     1.9415    -0.0187 H            1    LIG   0.0000
  23 H            3.2643    -0.4570    -0.0285 H            1    LIG   0.0000
  24 H           -2.0915    -2.5501     0.0036 H            1    LIG   0.0000
  25 H           -0.6846    -2.5034    -0.8241 H            1    LIG   0.0000
  26 H           -0.6713    -2.5143     0.8088 H            1    LIG   0.0000
  27 H           -3.2120    -0.6421    -0.2970 H            1    LIG   0.0000
  28 H           -2.4511     0.7754    -0.5773 H            1    LIG   0.0000
  29 H           -1.9609     2.3641     1.5589 H            1    LIG   0.0000
  30 H           -2.8864     2.3216     4.0012 H            1    LIG   0.0000
@<TRIPOS>BOND
   1        1        2 1
   2        2        3 1
   3        3        4 ar
   4        4        5 ar
   5        5        6 ar
   6        6        7 1
   7        6        8 ar
   8        8        9 1
   9        9       10 1
  10        9       11 1
  11       11       12 1
  12       12       13 2
  13       13       14 1
  14       14       15 2
  15       15       16 1
  16       16       12 1
  17        8       17 ar
  18       17        3 ar
  19       16       18 1
  20        1       19 1
  21        1       20 1
  22        1       21 1
  23        4       22 1
  24        5       23 1
  25       10       24 1
  26       10       25 1
  27       10       26 1
  28       11       27 1
  29       11       28 1
  30       13       29 1
  31       14       30 1

@<TRIPOS>MOLECULE

  30   31
SMALL
USER_CHARGES
@<TRIPOS>ATOM
   1 C1          -0.1279     4.0461     0.0242 C.3          1    LIG   0.0000
   2 O2           1.1523     3.4319     0.0086 O.3          1    LIG   0.0000
   3 C3           1.1492     2.0799     0.0028 C.ar         1    LIG   0.0000
   4 C4           2.3743     1.4226    -0.0123 C.ar         1    LIG   0.0000
   5 C5           2.3920     0.0318    -0.0185 C.ar         1    LIG   0.0000
   6 C6           1.1967    -0.6790    -0.0107 C.ar         1    LIG   0.0000
   7 F7           1.2264    -2.0088    -0.0168 F            1    LIG   0.0000
   8 C8          -0.0085     0.0160     0.0037 C.ar         1    LIG   0.0000
   9 N9          -1.2016    -0.7201     0.0086 N.pl3        1    LIG   0.0000
  10 C10         -1.1588    -2.1894    -0.0016 C.3          1    LIG   0.0000
  11 C11         -2.4955    -0.0226     0.0238 C.3          1    LIG   0.0000
  12 C12         -3.6221    -1.0441     0.0262 C.2          1    LIG   0.0000
  13 C13         -4.2064    -1.5869     1.1286 C.2          1    LIG   0.0000
  14 C14         -5.1943    -2.4748     0.6502 C.2          1    LIG   0.0000
  15 N15         -5.1458    -2.4126    -0.6582 N.2          1    LIG   0.0000
  16 N16         -4.2246    -1.5749    -1.0766 N.pl3        1    LIG   0.0000
  17 N17          0.0122     1.3610     0.0098 N.ar         1    LIG   0.0000
  18 H           -4.0051    -1.3646    -2.0293 H            1    LIG   0.0000
  19 H           -0.0206     5.0403     0.0273 H            1    LIG   0.0000
  20 H           -0.6406     3.7688    -0.7884 H            1    LIG   0.0000
  21 H           -0.6241     3.7617     0.8445 H            1    LIG   0.0000
  22 H            3.2291     1.9415    -0.0187 H            1    LIG   0.0000
  23 H            3.2643    -0.4570    -0.0285 H            1    LIG   0.0000
  24 H           -2.0915    -2.5501     0.0036 H            1    LIG   0.0000
  25 H           -0.6846    -2.5034    -0.8241 H            1    LIG   0.0000
  26 H           -0.6713    -2.5143     0.8088 H            1    LIG   0.0000
  27 H           -2.5719     0.5560    -0.7883 H            1    LIG   0.0000
  28 H           -2.5586     0.5451     0.8446 H            1    LIG   0.0000
  29 H           -3.9816    -1.3957     2.0841 H            1    LIG   0.0000
  30 H           -5.8094    -3.0394     1.2006 H            1    LIG   0.0000
@<TRIPOS>BOND
   1        1        2 1
   2        2        3 1
   3        3        4 ar
   4        4        5 ar
   5        5        6 ar
   6        6        7 1
   7        6        8 ar
   8        8        9 1
   9        9       10 1
  10        9       11 1
  11       11       12 1
  12       12       13 2
  13       13       14 1
  14       14       15 2
  15       15       16 1
  16       16       12 1
  17        8       17 ar
  18       17        3 ar
  19       16       18 1
  20        1       19 1
  21        1       20 1
  22        1       21 1
  23        4       22 1
  24        5       23 1
  25       10       24 1
  26       10       25 1
  27       10       26 1
  28       11       27 1
  29       11       28 1
  30       13       29 1
  31       14       30 1

@<TRIPOS>MOLECULE

  30   31
SMALL
USER_CHARGES
@<TRIPOS>ATOM
   1 C1           2.4353     4.0404    -0.0017 C.3          1    LIG   0.0000
   2 O2           1.1523     3.4319     0.0086 O.3          1    LIG   0.0000
   3 C3           1.1492     2.0799     0.0028 C.ar         1    LIG   0.0000
   4 C4           2.3743     1.4226    -0.0123 C.ar         1    LIG   0.0000
   5 C5           2.3920     0.0318    -0.0185 C.ar         1    LIG   0.0000
   6 C6           1.1967    -0.6790    -0.0107 C.ar         1    LIG   0.0000
   7 F7           1.2264    -2.0088    -0.0168 F            1    LIG   0.0000
   8 C8          -0.0085     0.0160     0.0037 C.ar         1    LIG   0.0000
   9 N9          -1.2016    -0.7201     0.0086 N.pl3        1    LIG   0.0000
  10 C10         -1.1588    -2.1894    -0.0016 C.3          1    LIG   0.0000
  11 C11         -2.4955    -0.0226     0.0238 C.3          1    LIG   0.0000
  12 C12         -2.2613     1.4801     0.0319 C.2          1    LIG   0.0000
  13 C13         -2.1490     2.2773    -1.0650 C.2          1    LIG   0.0000
  14 C14         -1.9415     3.5859    -0.5775 C.2          1    LIG   0.0000
  15 N15         -1.9429     3.4983     0.7304 N.2          1    LIG   0.0000
  16 N16         -2.1289     2.2642     1.1402 N.pl3        1    LIG   0.0000
  17 N17          0.0122     1.3610     0.0098 N.ar         1    LIG   0.0000
  18 H           -2.1666     1.9559     2.0907 H            1    LIG   0.0000
  19 H            2.3325     5.0351     0.0036 H            1    LIG   0.0000
  20 H            2.9466     3.7537     0.8085 H            1    LIG   0.0000
  21 H            2.9302     3.7608    -0.8244 H            1    LIG   0.0000
  22 H            3.2291     1.9415    -0.0187 H            1    LIG   0.0000
  23 H            3.2643    -0.4570    -0.0285 H            1    LIG   0.0000
  24 H           -2.0915    -2.5501     0.0036 H            1    LIG   0.0000
  25 H           -0.6846    -2.5034    -0.8241 H            1    LIG   0.0000
  26 H           -0.6713    -2.5143     0.8088 H            1    LIG   0.0000
  27 H           -3.0060    -0.2848     0.8427 H            1    LIG   0.0000
  28 H           -3.0193    -0.2739    -0.7902 H            1    LIG   0.0000
  29 H           -2.2026     1.9938    -2.0225 H            1    LIG   0.0000
  30 H           -1.8179     4.4155    -1.1221 H            1    LIG   0.0000
@<TRIPOS>BOND
   1        1        2 1
   2        2        3 1
   3        3        4 ar
   4        4        5 ar
   5        5        6 ar
   6        6        7 1
   7        6        8 ar
   8        8        9 1
   9        9       10 1
  10        9       11 1
  11       11       12 1
  12       12       13 2
  13       13       14 1
  14       14       15 2
  15       15       16 1
  16       16       12 1
  17        8       17 ar
  18       17        3 ar
  19       16       18 1
  20        1       19 1
  21        1       20 1
  22        1       21 1
  23        4       22 1
  24        5       23 1
  25       10       24 1
  26       10       25 1
  27       10       26 1
  28       11       27 1
  29       11       28 1
  30       13       29 1
  31       14       30 1

@<TRIPOS>MOLECULE

  30   31
SMALL
USER_CHARGES
@<TRIPOS>ATOM
   1 C1           2.4353     4.0404    -0.0017 C.3          1    LIG   0.0000
   2 O2           1.1523     3.4319     0.0086 O.3          1    LIG   0.0000
   3 C3           1.1492     2.0799     0.0028 C.ar         1    LIG   0.0000
   4 C4           2.3743     1.4226    -0.0123 C.ar         1    LIG   0.0000
   5 C5           2.3920     0.0318    -0.0185 C.ar         1    LIG   0.0000
   6 C6           1.1967    -0.6790    -0.0107 C.ar         1    LIG   0.0000
   7 F7           1.2264    -2.0088    -0.0168 F            1    LIG   0.0000
   8 C8          -0.0085     0.0160     0.0037 C.ar         1    LIG   0.0000
   9 N9          -1.2016    -0.7201     0.0086 N.pl3        1    LIG   0.0000
  10 C10         -1.5020    -1.6404    -1.0977 C.3          1    LIG   0.0000
  11 C11         -2.1523    -0.5716     1.1199 C.3          1    LIG   0.0000
  12 C12         -1.6807    -1.4004     2.3046 C.2          1    LIG   0.0000
  13 C13         -2.0045    -2.6987     2.5511 C.2          1    LIG   0.0000
  14 C14         -1.3421    -3.0462     3.7485 C.2          1    LIG   0.0000
  15 N15         -0.6861    -1.9781     4.1321 N.2          1    LIG   0.0000
  16 N16         -0.8577    -0.9723     3.3047 N.pl3        1    LIG   0.0000
  17 N17          0.0122     1.3610     0.0098 N.ar         1    LIG   0.0000
  18 H           -0.4581    -0.0598     3.3920 H            1    LIG   0.0000
  19 H            2.3325     5.0351     0.0036 H            1    LIG   0.0000
  20 H            2.9466     3.7537     0.8085 H            1    LIG   0.0000
  21 H            2.9302     3.7608    -0.8244 H            1    LIG   0.0000
  22 H            3.2291     1.9415    -0.0187 H            1    LIG   0.0000
  23 H            3.2643    -0.4570    -0.0285 H            1    LIG   0.0000
  24 H           -2.3854    -2.0799    -0.9351 H            1    LIG   0.0000
  25 H           -1.5370    -1.1291    -1.9564 H            1    LIG   0.0000
  26 H           -0.7879    -2.3381    -1.1540 H            1    LIG   0.0000
  27 H           -3.0557    -0.8880     0.8303 H            1    LIG   0.0000
  28 H           -2.2059     0.3907     1.3865 H            1    LIG   0.0000
  29 H           -2.5926    -3.2876     1.9965 H            1    LIG   0.0000
  30 H           -1.3682    -3.9318     4.2123 H            1    LIG   0.0000
@<TRIPOS>BOND
   1        1        2 1
   2        2        3 1
   3        3        4 ar
   4        4        5 ar
   5        5        6 ar
   6        6        7 1
   7        6        8 ar
   8        8        9 1
   9        9       10 1
  10        9       11 1
  11       11       12 1
  12       12       13 2
  13       13       14 1
  14       14       15 2
  15       15       16 1
  16       16       12 1
  17        8       17 ar
  18       17        3 ar
  19       16       18 1
  20        1       19 1
  21        1       20 1
  22        1       21 1
  23        4       22 1
  24        5       23 1
  25       10       24 1
  26       10       25 1
  27       10       26 1
  28       11       27 1
  29       11       28 1
  30       13       29 1
  31       14       30 1

@<TRIPOS>MOLECULE

  30   31
SMALL
USER_CHARGES
@<TRIPOS>ATOM
   1 C1           2.4353     4.0404    -0.0017 C.3          1    LIG   0.0000
   2 O2           1.1523     3.4319     0.0086 O.3          1    LIG   0.0000
   3 C3           1.1492     2.0799     0.0028 C.ar         1    LIG   0.0000
   4 C4           2.3743     1.4226    -0.0123 C.ar         1    LIG   0.0000
   5 C5           2.3920     0.0318    -0.0185 C.ar         1    LIG   0.0000
   6 C6           1.1967    -0.6790    -0.0107 C.ar         1    LIG   0.0000
   7 F7           1.2264    -2.0088    -0.0168 F            1    LIG   0.0000
   8 C8          -0.0085     0.0160     0.0037 C.ar         1    LIG   0.0000
   9 N9          -1.2016    -0.7201     0.0086 N.pl3        1    LIG   0.0000
  10 C10         -1.5020    -1.6404    -1.0977 C.3          1    LIG   0.0000
  11 C11         -2.1523    -0.5716     1.1199 C.3          1    LIG   0.0000
  12 C12         -1.6065     0.4325     2.1232 C.2          1    LIG   0.0000
  13 C13         -0.8130     0.1450     3.1905 C.2          1    LIG   0.0000
  14 C14         -0.5563     1.3774     3.8298 C.2          1    LIG   0.0000
  15 N15         -1.1853     2.2934     3.1344 N.2          1    LIG   0.0000
  16 N16         -1.8255     1.7788     2.1092 N.pl3        1    LIG   0.0000
  17 N17          0.0122     1.3610     0.0098 N.ar         1    LIG   0.0000
  18 H           -2.3733     2.2820     1.4408 H            1    LIG   0.0000
  19 H            2.3325     5.0351     0.0036 H            1    LIG   0.0000
  20 H            2.9466     3.7537     0.8085 H            1    LIG   0.0000
  21 H            2.9302     3.7608    -0.8244 H            1    LIG   0.0000
  22 H            3.2291     1.9415    -0.0187 H            1    LIG   0.0000
  23 H            3.2643    -0.4570    -0.0285 H            1    LIG   0.0000
  24 H           -2.3854    -2.0799    -0.9351 H            1    LIG   0.0000
  25 H           -1.5370    -1.1291    -1.9564 H            1    LIG   0.0000
  26 H           -0.7879    -2.3381    -1.1540 H            1    LIG   0.0000
  27 H           -2.2806    -1.4557     1.5692 H            1    LIG   0.0000
  28 H           -3.0297    -0.2467     0.7668 H            1    LIG   0.0000
  29 H           -0.4793    -0.7564     3.4663 H            1    LIG   0.0000
  30 H           -0.0040     1.5228     4.6506 H            1    LIG   0.0000
@<TRIPOS>BOND
   1        1        2 1
   2        2        3 1
   3        3        4 ar
   4        4        5 ar
   5        5        6 ar
   6        6        7 1
   7        6        8 ar
   8        8        9 1
   9        9       10 1
  10        9       11 1
  11       11       12 1
  12       12       13 2
  13       13       14 1
  14       14       15 2
  15       15       16 1
  16       16       12 1
  17        8       17 ar
  18       17        3 ar
  19       16       18 1
  20        1       19 1
  21        1       20 1
  22        1       21 1
  23        4       22 1
  24        5       23 1
  25       10       24 1
  26       10       25 1
  27       10       26 1
  28       11       27 1
  29       11       28 1
  30       13       29 1
  31       14       30 1

@<TRIPOS>MOLECULE

  30   31
SMALL
USER_CHARGES
@<TRIPOS>ATOM
   1 C1          -0.1279     4.0461     0.0242 C.3          1    LIG   0.0000
   2 O2           1.1523     3.4319     0.0086 O.3          1    LIG   0.0000
   3 C3           1.1492     2.0799     0.0028 C.ar         1    LIG   0.0000
   4 C4           2.3743     1.4226    -0.0123 C.ar         1    LIG   0.0000
   5 C5           2.3920     0.0318    -0.0185 C.ar         1    LIG   0.0000
   6 C6           1.1967    -0.6790    -0.0107 C.ar         1    LIG   0.0000
   7 F7           1.2264    -2.0088    -0.0168 F            1    LIG   0.0000
   8 C8          -0.0085     0.0160     0.0037 C.ar         1    LIG   0.0000
   9 N9          -1.2016    -0.7201     0.0086 N.pl3        1    LIG   0.0000
  10 C10         -2.1703    -0.5569    -1.0850 C.3          1    LIG   0.0000
  11 C11         -1.4840    -1.6551     1.1072 C.3          1    LIG   0.0000
  12 C12         -2.6160    -1.1062     1.9617 C.2          1    LIG   0.0000
  13 C13         -3.9432    -1.3429     1.7778 C.2          1    LIG   0.0000
  14 C14         -4.6117    -0.6359     2.8008 C.2          1    LIG   0.0000
  15 N15         -3.6821    -0.0424     3.5091 N.2          1    LIG   0.0000
  16 N16         -2.4779    -0.2919     3.0474 N.pl3        1    LIG   0.0000
  17 N17          0.0122     1.3610     0.0098 N.ar         1    LIG   0.0000
  18 H           -1.6173     0.0520     3.4231 H            1    LIG   0.0000
  19 H           -0.0206     5.0403     0.0273 H            1    LIG   0.0000
  20 H           -0.6406     3.7688    -0.7884 H            1    LIG   0.0000
  21 H           -0.6241     3.7617     0.8445 H            1    LIG   0.0000
  22 H            3.2291     1.9415    -0.0187 H            1    LIG   0.0000
  23 H            3.2643    -0.4570    -0.0285 H            1    LIG   0.0000
  24 H           -2.9578    -1.1520    -0.9243 H            1    LIG   0.0000
  25 H           -2.4740     0.3951    -1.1221 H            1    LIG   0.0000
  26 H           -1.7382    -0.8030    -1.9526 H            1    LIG   0.0000
  27 H           -0.6648    -1.7652     1.6700 H            1    LIG   0.0000
  28 H           -1.7509    -2.5418     0.7299 H            1    LIG   0.0000
  29 H           -4.3606    -1.9040     1.0629 H            1    LIG   0.0000
  30 H           -5.5990    -0.5959     2.9547 H            1    LIG   0.0000
@<TRIPOS>BOND
   1        1        2 1
   2        2        3 1
   3        3        4 ar
   4        4        5 ar
   5        5        6 ar
   6        6        7 1
   7        6        8 ar
   8        8        9 1
   9        9       10 1
  10        9       11 1
  11       11       12 1
  12       12       13 2
  13       13       14 1
  14       14       15 2
  15       15       16 1
  16       16       12 1
  17        8       17 ar
  18       17        3 ar
  19       16       18 1
  20        1       19 1
  21        1       20 1
  22        1       21 1
  23        4       22 1
  24        5       23 1
  25       10       24 1
  26       10       25 1
  27       10       26 1
  28       11       27 1
  29       11       28 1
  30       13       29 1
  31       14       30 1

@<TRIPOS>MOLECULE

  30   31
SMALL
USER_CHARGES
@<TRIPOS>ATOM
   1 C1          -0.1279     4.0461     0.0242 C.3          1    LIG   0.0000
   2 O2           1.1523     3.4319     0.0086 O.3          1    LIG   0.0000
   3 C3           1.1492     2.0799     0.0028 C.ar         1    LIG   0.0000
   4 C4           2.3743     1.4226    -0.0123 C.ar         1    LIG   0.0000
   5 C5           2.3920     0.0318    -0.0185 C.ar         1    LIG   0.0000
   6 C6           1.1967    -0.6790    -0.0107 C.ar         1    LIG   0.0000
   7 F7           1.2264    -2.0088    -0.0168 F            1    LIG   0.0000
   8 C8          -0.0085     0.0160     0.0037 C.ar         1    LIG   0.0000
   9 N9          -1.2016    -0.7201     0.0086 N.pl3        1    LIG   0.0000
  10 C10         -2.1703    -0.5569    -1.0850 C.3          1    LIG   0.0000
  11 C11         -1.4840    -1.6551     1.1072 C.3          1    LIG   0.0000
  12 C12         -1.4018    -3.0833     0.5912 C.2          1    LIG   0.0000
  13 C13         -0.2871    -3.8633     0.5725 C.2          1    LIG   0.0000
  14 C14         -0.6833    -5.0977     0.0134 C.2          1    LIG   0.0000
  15 N15         -1.9611    -4.9883    -0.2578 N.2          1    LIG   0.0000
  16 N16         -2.4332    -3.8065     0.0679 N.pl3        1    LIG   0.0000
  17 N17          0.0122     1.3610     0.0098 N.ar         1    LIG   0.0000
  18 H           -3.3762    -3.4942    -0.0469 H            1    LIG   0.0000
  19 H           -0.0206     5.0403     0.0273 H            1    LIG   0.0000
  20 H           -0.6406     3.7688    -0.7884 H            1    LIG   0.0000
  21 H           -0.6241     3.7617     0.8445 H            1    LIG   0.0000
  22 H            3.2291     1.9415    -0.0187 H            1    LIG   0.0000
  23 H            3.2643    -0.4570    -0.0285 H            1    LIG   0.0000
  24 H           -2.9578    -1.1520    -0.9243 H            1    LIG   0.0000
  25 H           -2.4740     0.3951    -1.1221 H            1    LIG   0.0000
  26 H           -1.7382    -0.8030    -1.9526 H            1    LIG   0.0000
  27 H           -2.4018    -1.4820     1.4646 H            1    LIG   0.0000
  28 H           -0.8123    -1.5250     1.8365 H            1    LIG   0.0000
  29 H            0.6274    -3.6131     0.8904 H            1    LIG   0.0000
  30 H           -0.1038    -5.8973    -0.1446 H            1    LIG   0.0000
@<TRIPOS>BOND
   1        1        2 1
   2        2        3 1
   3        3        4 ar
   4        4        5 ar
   5        5        6 ar
   6        6        7 1
   7        6        8 ar
   8        8        9 1
   9        9       10 1
  10        9       11 1
  11       11       12 1
  12       12       13 2
  13       13       14 1
  14       14       15 2
  15       15       16 1
  16       16       12 1
  17        8       17 ar
  18       17        3 ar
  19       16       18 1
  20        1       19 1
  21        1       20 1
  22        1       21 1
  23        4       22 1
  24        5       23 1
  25       10       24 1
  26       10       25 1
  27       10       26 1
  28       11       27 1
  29       11       28 1
  30       13       29 1
  31       14       30 1

@<TRIPOS>MOLECULE

  30   31
SMALL
USER_CHARGES
@<TRIPOS>ATOM
   1 C1           2.4353     4.0404    -0.0017 C.3          1    LIG   0.0000
   2 O2           1.1523     3.4319     0.0086 O.3          1    LIG   0.0000
   3 C3           1.1492     2.0799     0.0028 C.ar         1    LIG   0.0000
   4 C4           2.3743     1.4226    -0.0123 C.ar         1    LIG   0.0000
   5 C5           2.3920     0.0318    -0.0185 C.ar         1    LIG   0.0000
   6 C6           1.1967    -0.6790    -0.0107 C.ar         1    LIG   0.0000
   7 F7           1.2264    -2.0088    -0.0168 F            1    LIG   0.0000
   8 C8          -0.0085     0.0160     0.0037 C.ar         1    LIG   0.0000
   9 N9          -1.2016    -0.7201     0.0086 N.pl3        1    LIG   0.0000
  10 C10         -2.1703    -0.5569    -1.0850 C.3          1    LIG   0.0000
  11 C11         -1.4840    -1.6551     1.1072 C.3          1    LIG   0.0000
  12 C12         -2.8314    -2.3203     0.8731 C.2          1    LIG   0.0000
  13 C13         -4.0358    -1.8609     1.3086 C.2          1    LIG   0.0000
  14 C14         -4.9956    -2.7937     0.8591 C.2          1    LIG   0.0000
  15 N15         -4.3354    -3.7188     0.2061 N.2          1    LIG   0.0000
  16 N16         -3.0437    -3.4807     0.1882 N.pl3        1    LIG   0.0000
  17 N17          0.0122     1.3610     0.0098 N.ar         1    LIG   0.0000
  18 H           -2.3439    -4.0467    -0.2477 H            1    LIG   0.0000
  19 H            2.3325     5.0351     0.0036 H            1    LIG   0.0000
  20 H            2.9466     3.7537     0.8085 H            1    LIG   0.0000
  21 H            2.9302     3.7608    -0.8244 H            1    LIG   0.0000
  22 H            3.2291     1.9415    -0.0187 H            1    LIG   0.0000
  23 H            3.2643    -0.4570    -0.0285 H            1    LIG   0.0000
  24 H           -2.9578    -1.1520    -0.9243 H            1    LIG   0.0000
  25 H           -2.4740     0.3951    -1.1221 H            1    LIG   0.0000
  26 H           -1.7382    -0.8030    -1.9526 H            1    LIG   0.0000
  27 H           -1.5049    -1.1553     1.9731 H            1    LIG   0.0000
  28 H           -0.7691    -2.3534     1.1426 H            1    LIG   0.0000
  29 H           -4.2066    -1.0308     1.8395 H            1    LIG   0.0000
  30 H           -5.9836    -2.7560     1.0092 H            1    LIG   0.0000
@<TRIPOS>BOND
   1        1        2 1
   2        2        3 1
   3        3        4 ar
   4        4        5 ar
   5        5        6 ar
   6        6        7 1
   7        6        8 ar
   8        8        9 1
   9        9       10 1
  10        9       11 1
  11       11       12 1
  12       12       13 2
  13       13       14 1
  14       14       15 2
  15       15       16 1
  16       16       12 1
  17        8       17 ar
  18       17        3 ar
  19       16       18 1
  20        1       19 1
  21        1       20 1
  22        1       21 1
  23        4       22 1
  24        5       23 1
  25       10       24 1
  26       10       25 1
  27       10       26 1
  28       11       27 1
  29       11       28 1
  30       13       29 1
  31       14       30 1

