@<TRIPOS>MOLECULE
*****
 30 31 0 0 0
SMALL
USER_CHARGES

@<TRIPOS>ATOM
      1 C1         -0.1279    4.0461    0.0242 C.3     1  LIG1        0.0000
      2 O2          1.1523    3.4319    0.0086 O.3     1  LIG1        0.0000
      3 C3          1.1492    2.0799    0.0028 C.ar    1  LIG1        0.0000
      4 C4          2.3743    1.4226   -0.0123 C.ar    1  LIG1        0.0000
      5 C5          2.3920    0.0318   -0.0185 C.ar    1  LIG1        0.0000
      6 C6          1.1967   -0.6790   -0.0107 C.ar    1  LIG1        0.0000
      7 F7          1.2264   -2.0088   -0.0168 F       1  LIG1        0.0000
      8 C8         -0.0085    0.0160    0.0037 C.ar    1  LIG1        0.0000
      9 N9         -1.2016   -0.7201    0.0086 N.pl3   1  LIG1        0.0000
     10 C10        -1.1588   -2.1894   -0.0016 C.3     1  LIG1        0.0000
     11 C11        -2.4955   -0.0226    0.0238 C.3     1  LIG1        0.0000
     12 C12        -3.6221   -1.0441    0.0262 C.2     1  LIG1        0.0000
     13 C13        -4.2064   -1.5869    1.1286 C.2     1  LIG1        0.0000
     14 C14        -5.1943   -2.4748    0.6502 C.2     1  LIG1        0.0000
     15 N15        -5.1458   -2.4126   -0.6582 N.2     1  LIG1        0.0000
     16 N16        -4.2246   -1.5749   -1.0766 N.pl3   1  LIG1        0.0000
     17 N17         0.0122    1.3610    0.0098 N.ar    1  LIG1        0.0000
     18 H          -4.0051   -1.3646   -2.0293 H       1  LIG1        0.0000
     19 H          -0.0206    5.0403    0.0273 H       1  LIG1        0.0000
     20 H          -0.6406    3.7688   -0.7884 H       1  LIG1        0.0000
     21 H          -0.6241    3.7617    0.8445 H       1  LIG1        0.0000
     22 H           3.2291    1.9415   -0.0187 H       1  LIG1        0.0000
     23 H           3.2643   -0.4570   -0.0285 H       1  LIG1        0.0000
     24 H          -2.0915   -2.5501    0.0036 H       1  LIG1        0.0000
     25 H          -0.6846   -2.5034   -0.8241 H       1  LIG1        0.0000
     26 H          -0.6713   -2.5143    0.8088 H       1  LIG1        0.0000
     27 H          -2.5719    0.5560   -0.7883 H       1  LIG1        0.0000
     28 H          -2.5586    0.5451    0.8446 H       1  LIG1        0.0000
     29 H          -3.9816   -1.3957    2.0841 H       1  LIG1        0.0000
     30 H          -5.8094   -3.0394    1.2006 H       1  LIG1        0.0000
@<TRIPOS>BOND
     1     1     2    1
     2     2     3    1
     3     3     4   ar
     4     4     5   ar
     5     5     6   ar
     6     6     7    1
     7     6     8   ar
     8     8     9    1
     9     9    10    1
    10     9    11    1
    11    11    12    1
    12    12    13    2
    13    13    14    1
    14    14    15    2
    15    15    16    1
    16    16    12    1
    17     8    17   ar
    18    17     3   ar
    19    16    18    1
    20     1    19    1
    21     1    20    1
    22     1    21    1
    23     4    22    1
    24     5    23    1
    25    10    24    1
    26    10    25    1
    27    10    26    1
    28    11    27    1
    29    11    28    1
    30    13    29    1
    31    14    30    1
