@<TRIPOS>MOLECULE
*****
 30 31 0 0 0
SMALL
USER_CHARGES

@<TRIPOS>ATOM
      1 C1          2.4353    4.0404   -0.0017 C.3     1  LIG1        0.0000
      2 O2          1.1523    3.4319    0.0086 O.3     1  LIG1        0.0000
      3 C3          1.1492    2.0799    0.0028 C.ar    1  LIG1        0.0000
      4 C4          2.3743    1.4226   -0.0123 C.ar    1  LIG1        0.0000
      5 C5          2.3920    0.0318   -0.0185 C.ar    1  LIG1        0.0000
      6 C6          1.1967   -0.6790   -0.0107 C.ar    1  LIG1        0.0000
      7 F7          1.2264   -2.0088   -0.0168 F       1  LIG1        0.0000
      8 C8         -0.0085    0.0160    0.0037 C.ar    1  LIG1        0.0000
      9 N9         -1.2016   -0.7201    0.0086 N.pl3   1  LIG1        0.0000
     10 C10        -2.1703   -0.5569   -1.0850 C.3     1  LIG1        0.0000
     11 C11        -1.4840   -1.6551    1.1072 C.3     1  LIG1        0.0000
     12 C12        -2.8314   -2.3203    0.8731 C.2     1  LIG1        0.0000
     13 C13        -4.0358   -1.8609    1.3086 C.2     1  LIG1        0.0000
     14 C14        -4.9956   -2.7937    0.8591 C.2     1  LIG1        0.0000
     15 N15        -4.3354   -3.7188    0.2061 N.2     1  LIG1        0.0000
     16 N16        -3.0437   -3.4807    0.1882 N.pl3   1  LIG1        0.0000
     17 N17         0.0122    1.3610    0.0098 N.ar    1  LIG1        0.0000
     18 H          -2.3439   -4.0467   -0.2477 H       1  LIG1        0.0000
     19 H           2.3325    5.0351    0.0036 H       1  LIG1        0.0000
     20 H           2.9466    3.7537    0.8085 H       1  LIG1        0.0000
     21 H           2.9302    3.7608   -0.8244 H       1  LIG1        0.0000
     22 H           3.2291    1.9415   -0.0187 H       1  LIG1        0.0000
     23 H           3.2643   -0.4570   -0.0285 H       1  LIG1        0.0000
     24 H          -2.9578   -1.1520   -0.9243 H       1  LIG1        0.0000
     25 H          -2.4740    0.3951   -1.1221 H       1  LIG1        0.0000
     26 H          -1.7382   -0.8030   -1.9526 H       1  LIG1        0.0000
     27 H          -1.5049   -1.1553    1.9731 H       1  LIG1        0.0000
     28 H          -0.7691   -2.3534    1.1426 H       1  LIG1        0.0000
     29 H          -4.2066   -1.0308    1.8395 H       1  LIG1        0.0000
     30 H          -5.9836   -2.7560    1.0092 H       1  LIG1        0.0000
@<TRIPOS>BOND
     1     1     2    1
     2     2     3    1
     3     3     4   ar
     4     4     5   ar
     5     5     6   ar
     6     6     7    1
     7     6     8   ar
     8     8     9    1
     9     9    10    1
    10     9    11    1
    11    11    12    1
    12    12    13    2
    13    13    14    1
    14    14    15    2
    15    15    16    1
    16    16    12    1
    17     8    17   ar
    18    17     3   ar
    19    16    18    1
    20     1    19    1
    21     1    20    1
    22     1    21    1
    23     4    22    1
    24     5    23    1
    25    10    24    1
    26    10    25    1
    27    10    26    1
    28    11    27    1
    29    11    28    1
    30    13    29    1
    31    14    30    1
