@<TRIPOS>MOLECULE

  59   62
SMALL
USER_CHARGES
@<TRIPOS>ATOM
   1 C1          -1.8075    -2.0115    -4.9334 C.3          1    LIG   0.0000
   2 C2          -0.8311    -3.1009    -4.5216 C.ar         1    LIG   0.0000
   3 C3          -0.8811    -4.3355    -5.1603 C.ar         1    LIG   0.0000
   4 C4           0.0175    -5.3253    -4.7771 C.ar         1    LIG   0.0000
   5 C5          -0.0223    -6.6810    -5.4625 C.3          1    LIG   0.0000
   6 C6           0.9545    -5.0981    -3.7745 C.ar         1    LIG   0.0000
   7 C7           0.9830    -3.8544    -3.1521 C.ar         1    LIG   0.0000
   8 N8           1.9189    -3.6095    -2.1403 N.pl3        1    LIG   0.0000
   9 N9           2.5823    -2.4875    -1.9781 N.2          1    LIG   0.0000
  10 C10          3.3715    -2.6071    -0.9373 C.2          1    LIG   0.0000
  11 C11          4.2676    -1.5839    -0.4344 C.2          1    LIG   0.0000
  12 O12          5.4480    -1.7936    -0.3807 O.2          1    LIG   0.0000
  13 N13          3.7576    -0.3558    -0.0130 N.am         1    LIG   0.0000
  14 C14          4.5531     0.7510     0.5057 C.3          1    LIG   0.0000
  15 C15          3.7896     1.9437    -0.0276 C.3          1    LIG   0.0000
  16 C16          4.2534     2.2883    -1.4337 C.3          1    LIG   0.0000
  17 C17          5.6775     2.8170    -1.3822 C.2          1    LIG   0.0000
  18 O18          6.2477     2.9036    -0.3299 O.2          1    LIG   0.0000
  19 N19          6.3102     3.1946    -2.5372 N.am         1    LIG   0.0000
  20 C20          7.6875     3.7058    -2.4874 C.3          1    LIG   0.0000
  21 C21          5.6118     3.0885    -3.8263 C.3          1    LIG   0.0000
  22 C22          2.3761     1.4111    -0.0130 C.ar         1    LIG   0.0000
  23 C23          1.1649     2.0958     0.0008 C.ar         1    LIG   0.0000
  24 C24         -0.0222     1.3711     0.0105 C.ar         1    LIG   0.0000
  25 Cl25        -1.5710     2.2480     0.0282 Cl           1    LIG   0.0000
  26 C26          0.0001    -0.0204     0.0066 C.ar         1    LIG   0.0000
  27 C27          1.2251    -0.6794    -0.0055 C.ar         1    LIG   0.0000
  28 C28          2.4206     0.0327    -0.0147 C.ar         1    LIG   0.0000
  29 C29          3.2093    -3.8947    -0.3823 C.2          1    LIG   0.0000
  30 C30          2.2831    -4.4955    -1.1740 C.2          1    LIG   0.0000
  31 C31          1.7486    -5.9088    -1.0062 C.3          1    LIG   0.0000
  32 C32          0.0959    -2.8472    -3.5164 C.ar         1    LIG   0.0000
  33 H            3.8822     2.7303     0.5828 H            1    LIG   0.0000
  34 H           -2.4006    -2.3535    -5.6622 H            1    LIG   0.0000
  35 H           -2.3649    -1.7484    -4.1459 H            1    LIG   0.0000
  36 H           -1.2994    -1.2157    -5.2629 H            1    LIG   0.0000
  37 H           -1.5512    -4.5083    -5.8822 H            1    LIG   0.0000
  38 H           -0.7451    -6.6840    -6.1536 H            1    LIG   0.0000
  39 H            0.8587    -6.8590    -5.9008 H            1    LIG   0.0000
  40 H           -0.2069    -7.3922    -4.7841 H            1    LIG   0.0000
  41 H            1.5964    -5.8163    -3.5058 H            1    LIG   0.0000
  42 H            5.4879     0.7270     0.1514 H            1    LIG   0.0000
  43 H            4.5754     0.7484     1.5055 H            1    LIG   0.0000
  44 H            4.2227     1.4683    -2.0052 H            1    LIG   0.0000
  45 H            3.6522     2.9872    -1.8211 H            1    LIG   0.0000
  46 H            7.9926     3.9325    -3.4124 H            1    LIG   0.0000
  47 H            7.7182     4.5259    -1.9159 H            1    LIG   0.0000
  48 H            8.2887     3.0069    -2.1000 H            1    LIG   0.0000
  49 H            6.2148     3.4038    -4.5591 H            1    LIG   0.0000
  50 H            5.3579     2.1353    -3.9904 H            1    LIG   0.0000
  51 H            4.7874     3.6542    -3.8063 H            1    LIG   0.0000
  52 H            1.1482     3.0956     0.0038 H            1    LIG   0.0000
  53 H           -0.8541    -0.5403     0.0124 H            1    LIG   0.0000
  54 H            1.2470    -1.6792    -0.0076 H            1    LIG   0.0000
  55 H            3.6729    -4.2792     0.4160 H            1    LIG   0.0000
  56 H            2.1858    -6.3390    -0.2164 H            1    LIG   0.0000
  57 H            0.7594    -5.8763    -0.8629 H            1    LIG   0.0000
  58 H            1.9489    -6.4408    -1.8289 H            1    LIG   0.0000
  59 H            0.1241    -1.9561    -3.0635 H            1    LIG   0.0000
@<TRIPOS>BOND
   1        1        2 1
   2        2        3 ar
   3        3        4 ar
   4        4        5 1
   5        4        6 ar
   6        6        7 ar
   7        7        8 1
   8        8        9 1
   9        9       10 2
  10       10       11 1
  11       11       12 2
  12       11       13 am
  13       13       14 1
  14       14       15 1
  15       15       16 1
  16       16       17 1
  17       17       18 2
  18       17       19 am
  19       19       20 1
  20       19       21 1
  21       15       22 1
  22       22       23 ar
  23       23       24 ar
  24       24       25 1
  25       24       26 ar
  26       26       27 ar
  27       27       28 ar
  28       28       22 ar
  29       28       13 1
  30       10       29 1
  31       29       30 2
  32       30        8 1
  33       30       31 1
  34        7       32 ar
  35       32        2 ar
  36       15       33 1
  37        1       34 1
  38        1       35 1
  39        1       36 1
  40        3       37 1
  41        5       38 1
  42        5       39 1
  43        5       40 1
  44        6       41 1
  45       14       42 1
  46       14       43 1
  47       16       44 1
  48       16       45 1
  49       20       46 1
  50       20       47 1
  51       20       48 1
  52       21       49 1
  53       21       50 1
  54       21       51 1
  55       23       52 1
  56       26       53 1
  57       27       54 1
  58       29       55 1
  59       31       56 1
  60       31       57 1
  61       31       58 1
  62       32       59 1

@<TRIPOS>MOLECULE

  59   62
SMALL
USER_CHARGES
@<TRIPOS>ATOM
   1 C1           0.2602    -6.5088    -5.7574 C.3          1    LIG   0.0000
   2 C2           0.1577    -5.2469    -4.9167 C.ar         1    LIG   0.0000
   3 C3          -0.8723    -4.3458    -5.1660 C.ar         1    LIG   0.0000
   4 C4          -0.9581    -3.1946    -4.3904 C.ar         1    LIG   0.0000
   5 C5          -2.0756    -2.1977    -4.6484 C.3          1    LIG   0.0000
   6 C6          -0.0371    -2.9367    -3.3804 C.ar         1    LIG   0.0000
   7 C7           0.9830    -3.8544    -3.1521 C.ar         1    LIG   0.0000
   8 N8           1.9189    -3.6095    -2.1403 N.pl3        1    LIG   0.0000
   9 N9           2.5823    -2.4875    -1.9781 N.2          1    LIG   0.0000
  10 C10          3.3715    -2.6071    -0.9373 C.2          1    LIG   0.0000
  11 C11          4.2676    -1.5839    -0.4344 C.2          1    LIG   0.0000
  12 O12          5.4480    -1.7936    -0.3807 O.2          1    LIG   0.0000
  13 N13          3.7576    -0.3558    -0.0130 N.am         1    LIG   0.0000
  14 C14          4.5531     0.7510     0.5057 C.3          1    LIG   0.0000
  15 C15          3.7896     1.9437    -0.0276 C.3          1    LIG   0.0000
  16 C16          4.2534     2.2883    -1.4337 C.3          1    LIG   0.0000
  17 C17          5.6775     2.8170    -1.3822 C.2          1    LIG   0.0000
  18 O18          6.2477     2.9036    -0.3299 O.2          1    LIG   0.0000
  19 N19          6.3102     3.1946    -2.5372 N.am         1    LIG   0.0000
  20 C20          7.6875     3.7058    -2.4874 C.3          1    LIG   0.0000
  21 C21          5.6118     3.0885    -3.8263 C.3          1    LIG   0.0000
  22 C22          2.3761     1.4111    -0.0130 C.ar         1    LIG   0.0000
  23 C23          1.1649     2.0958     0.0008 C.ar         1    LIG   0.0000
  24 C24         -0.0222     1.3711     0.0105 C.ar         1    LIG   0.0000
  25 Cl25        -1.5710     2.2480     0.0282 Cl           1    LIG   0.0000
  26 C26          0.0001    -0.0204     0.0066 C.ar         1    LIG   0.0000
  27 C27          1.2251    -0.6794    -0.0055 C.ar         1    LIG   0.0000
  28 C28          2.4206     0.0327    -0.0147 C.ar         1    LIG   0.0000
  29 C29          3.2093    -3.8947    -0.3823 C.2          1    LIG   0.0000
  30 C30          2.2831    -4.4955    -1.1740 C.2          1    LIG   0.0000
  31 C31          1.7486    -5.9088    -1.0062 C.3          1    LIG   0.0000
  32 C32          1.0914    -5.0135    -3.9129 C.ar         1    LIG   0.0000
  33 H            3.8822     2.7303     0.5828 H            1    LIG   0.0000
  34 H           -0.4812    -6.5235    -6.4283 H            1    LIG   0.0000
  35 H            1.1400    -6.5223    -6.2324 H            1    LIG   0.0000
  36 H            0.1891    -7.3110    -5.1645 H            1    LIG   0.0000
  37 H           -1.5391    -4.5226    -5.8900 H            1    LIG   0.0000
  38 H           -2.6480    -2.5257    -5.3999 H            1    LIG   0.0000
  39 H           -2.6323    -2.1002    -3.8234 H            1    LIG   0.0000
  40 H           -1.6820    -1.3112    -4.8916 H            1    LIG   0.0000
  41 H           -0.1071    -2.1060    -2.8281 H            1    LIG   0.0000
  42 H            5.4879     0.7270     0.1514 H            1    LIG   0.0000
  43 H            4.5754     0.7484     1.5055 H            1    LIG   0.0000
  44 H            4.2227     1.4683    -2.0052 H            1    LIG   0.0000
  45 H            3.6522     2.9872    -1.8211 H            1    LIG   0.0000
  46 H            7.9926     3.9325    -3.4124 H            1    LIG   0.0000
  47 H            7.7182     4.5259    -1.9159 H            1    LIG   0.0000
  48 H            8.2887     3.0069    -2.1000 H            1    LIG   0.0000
  49 H            6.2148     3.4038    -4.5591 H            1    LIG   0.0000
  50 H            5.3579     2.1353    -3.9904 H            1    LIG   0.0000
  51 H            4.7874     3.6542    -3.8063 H            1    LIG   0.0000
  52 H            1.1482     3.0956     0.0038 H            1    LIG   0.0000
  53 H           -0.8541    -0.5403     0.0124 H            1    LIG   0.0000
  54 H            1.2470    -1.6792    -0.0076 H            1    LIG   0.0000
  55 H            3.6729    -4.2792     0.4160 H            1    LIG   0.0000
  56 H            2.1858    -6.3390    -0.2164 H            1    LIG   0.0000
  57 H            0.7594    -5.8763    -0.8629 H            1    LIG   0.0000
  58 H            1.9489    -6.4408    -1.8289 H            1    LIG   0.0000
  59 H            1.8280    -5.6677    -3.7412 H            1    LIG   0.0000
@<TRIPOS>BOND
   1        1        2 1
   2        2        3 ar
   3        3        4 ar
   4        4        5 1
   5        4        6 ar
   6        6        7 ar
   7        7        8 1
   8        8        9 1
   9        9       10 2
  10       10       11 1
  11       11       12 2
  12       11       13 am
  13       13       14 1
  14       14       15 1
  15       15       16 1
  16       16       17 1
  17       17       18 2
  18       17       19 am
  19       19       20 1
  20       19       21 1
  21       15       22 1
  22       22       23 ar
  23       23       24 ar
  24       24       25 1
  25       24       26 ar
  26       26       27 ar
  27       27       28 ar
  28       28       22 ar
  29       28       13 1
  30       10       29 1
  31       29       30 2
  32       30        8 1
  33       30       31 1
  34        7       32 ar
  35       32        2 ar
  36       15       33 1
  37        1       34 1
  38        1       35 1
  39        1       36 1
  40        3       37 1
  41        5       38 1
  42        5       39 1
  43        5       40 1
  44        6       41 1
  45       14       42 1
  46       14       43 1
  47       16       44 1
  48       16       45 1
  49       20       46 1
  50       20       47 1
  51       20       48 1
  52       21       49 1
  53       21       50 1
  54       21       51 1
  55       23       52 1
  56       26       53 1
  57       27       54 1
  58       29       55 1
  59       31       56 1
  60       31       57 1
  61       31       58 1
  62       32       59 1

@<TRIPOS>MOLECULE

  59   62
SMALL
USER_CHARGES
@<TRIPOS>ATOM
   1 C1          10.4686     0.1633    -4.4125 C.3          1    LIG   0.0000
   2 C2          10.3440    -0.2982    -2.9699 C.ar         1    LIG   0.0000
   3 C3          11.4585    -0.2422    -2.1395 C.ar         1    LIG   0.0000
   4 C4          11.3336    -0.6657    -0.8207 C.ar         1    LIG   0.0000
   5 C5          12.5403    -0.6132     0.1015 C.3          1    LIG   0.0000
   6 C6          10.1220    -1.1390    -0.3281 C.ar         1    LIG   0.0000
   7 C7           9.0231    -1.1843    -1.1798 C.ar         1    LIG   0.0000
   8 N8           7.7966    -1.6590    -0.7004 N.pl3        1    LIG   0.0000
   9 N9           6.6216    -1.1487    -0.9906 N.2          1    LIG   0.0000
  10 C10          5.6940    -1.8373    -0.3695 C.2          1    LIG   0.0000
  11 C11          4.2676    -1.5839    -0.4344 C.2          1    LIG   0.0000
  12 O12          3.5261    -2.4306    -0.8505 O.2          1    LIG   0.0000
  13 N13          3.7576    -0.3558    -0.0130 N.am         1    LIG   0.0000
  14 C14          4.5531     0.7510     0.5057 C.3          1    LIG   0.0000
  15 C15          3.7896     1.9437    -0.0276 C.3          1    LIG   0.0000
  16 C16          4.2534     2.2883    -1.4337 C.3          1    LIG   0.0000
  17 C17          5.6775     2.8170    -1.3822 C.2          1    LIG   0.0000
  18 O18          6.2477     2.9036    -0.3299 O.2          1    LIG   0.0000
  19 N19          6.3102     3.1946    -2.5372 N.am         1    LIG   0.0000
  20 C20          7.6875     3.7058    -2.4874 C.3          1    LIG   0.0000
  21 C21          5.6118     3.0885    -3.8263 C.3          1    LIG   0.0000
  22 C22          2.3761     1.4111    -0.0130 C.ar         1    LIG   0.0000
  23 C23          1.1649     2.0958     0.0008 C.ar         1    LIG   0.0000
  24 C24         -0.0222     1.3711     0.0105 C.ar         1    LIG   0.0000
  25 Cl25        -1.5710     2.2480     0.0282 Cl           1    LIG   0.0000
  26 C26          0.0001    -0.0204     0.0066 C.ar         1    LIG   0.0000
  27 C27          1.2251    -0.6794    -0.0055 C.ar         1    LIG   0.0000
  28 C28          2.4206     0.0327    -0.0147 C.ar         1    LIG   0.0000
  29 C29          6.3069    -2.8683     0.3746 C.2          1    LIG   0.0000
  30 C30          7.6363    -2.7184     0.1382 C.2          1    LIG   0.0000
  31 C31          8.7469    -3.5847     0.7105 C.3          1    LIG   0.0000
  32 C32          9.1207    -0.7667    -2.5028 C.ar         1    LIG   0.0000
  33 H            3.8822     2.7303     0.5828 H            1    LIG   0.0000
  34 H           11.4055     0.4673    -4.5855 H            1    LIG   0.0000
  35 H           10.2456    -0.5947    -5.0254 H            1    LIG   0.0000
  36 H            9.8368     0.9211    -4.5758 H            1    LIG   0.0000
  37 H           12.3338     0.0964    -2.4846 H            1    LIG   0.0000
  38 H           13.3271    -0.2523    -0.3992 H            1    LIG   0.0000
  39 H           12.3393    -0.0186     0.8800 H            1    LIG   0.0000
  40 H           12.7487    -1.5342     0.4307 H            1    LIG   0.0000
  41 H           10.0423    -1.4414     0.6217 H            1    LIG   0.0000
  42 H            5.4879     0.7270     0.1514 H            1    LIG   0.0000
  43 H            4.5754     0.7484     1.5055 H            1    LIG   0.0000
  44 H            4.2227     1.4683    -2.0052 H            1    LIG   0.0000
  45 H            3.6522     2.9872    -1.8211 H            1    LIG   0.0000
  46 H            7.9926     3.9325    -3.4124 H            1    LIG   0.0000
  47 H            7.7182     4.5259    -1.9159 H            1    LIG   0.0000
  48 H            8.2887     3.0069    -2.1000 H            1    LIG   0.0000
  49 H            6.2148     3.4038    -4.5591 H            1    LIG   0.0000
  50 H            5.3579     2.1353    -3.9904 H            1    LIG   0.0000
  51 H            4.7874     3.6542    -3.8063 H            1    LIG   0.0000
  52 H            1.1482     3.0956     0.0038 H            1    LIG   0.0000
  53 H           -0.8541    -0.5403     0.0124 H            1    LIG   0.0000
  54 H            1.2470    -1.6792    -0.0076 H            1    LIG   0.0000
  55 H            5.8617    -3.5560     0.9481 H            1    LIG   0.0000
  56 H            8.3501    -4.2914     1.2964 H            1    LIG   0.0000
  57 H            9.2518    -4.0163    -0.0370 H            1    LIG   0.0000
  58 H            9.3693    -3.0163     1.2486 H            1    LIG   0.0000
  59 H            8.3251    -0.8026    -3.1075 H            1    LIG   0.0000
@<TRIPOS>BOND
   1        1        2 1
   2        2        3 ar
   3        3        4 ar
   4        4        5 1
   5        4        6 ar
   6        6        7 ar
   7        7        8 1
   8        8        9 1
   9        9       10 2
  10       10       11 1
  11       11       12 2
  12       11       13 am
  13       13       14 1
  14       14       15 1
  15       15       16 1
  16       16       17 1
  17       17       18 2
  18       17       19 am
  19       19       20 1
  20       19       21 1
  21       15       22 1
  22       22       23 ar
  23       23       24 ar
  24       24       25 1
  25       24       26 ar
  26       26       27 ar
  27       27       28 ar
  28       28       22 ar
  29       28       13 1
  30       10       29 1
  31       29       30 2
  32       30        8 1
  33       30       31 1
  34        7       32 ar
  35       32        2 ar
  36       15       33 1
  37        1       34 1
  38        1       35 1
  39        1       36 1
  40        3       37 1
  41        5       38 1
  42        5       39 1
  43        5       40 1
  44        6       41 1
  45       14       42 1
  46       14       43 1
  47       16       44 1
  48       16       45 1
  49       20       46 1
  50       20       47 1
  51       20       48 1
  52       21       49 1
  53       21       50 1
  54       21       51 1
  55       23       52 1
  56       26       53 1
  57       27       54 1
  58       29       55 1
  59       31       56 1
  60       31       57 1
  61       31       58 1
  62       32       59 1

@<TRIPOS>MOLECULE

  59   62
SMALL
USER_CHARGES
@<TRIPOS>ATOM
   1 C1          12.4122    -0.2004     0.1995 C.3          1    LIG   0.0000
   2 C2          11.2711    -0.4694    -0.7676 C.ar         1    LIG   0.0000
   3 C3          11.4624    -0.2385    -2.1259 C.ar         1    LIG   0.0000
   4 C4          10.4123    -0.4889    -3.0027 C.ar         1    LIG   0.0000
   5 C5          10.6018    -0.2417    -4.4901 C.3          1    LIG   0.0000
   6 C6           9.1877    -0.9618    -2.5430 C.ar         1    LIG   0.0000
   7 C7           9.0231    -1.1843    -1.1798 C.ar         1    LIG   0.0000
   8 N8           7.7966    -1.6590    -0.7004 N.pl3        1    LIG   0.0000
   9 N9           6.6216    -1.1487    -0.9906 N.2          1    LIG   0.0000
  10 C10          5.6940    -1.8373    -0.3695 C.2          1    LIG   0.0000
  11 C11          4.2676    -1.5839    -0.4344 C.2          1    LIG   0.0000
  12 O12          3.5261    -2.4306    -0.8505 O.2          1    LIG   0.0000
  13 N13          3.7576    -0.3558    -0.0130 N.am         1    LIG   0.0000
  14 C14          4.5531     0.7510     0.5057 C.3          1    LIG   0.0000
  15 C15          3.7896     1.9437    -0.0276 C.3          1    LIG   0.0000
  16 C16          4.2534     2.2883    -1.4337 C.3          1    LIG   0.0000
  17 C17          5.6775     2.8170    -1.3822 C.2          1    LIG   0.0000
  18 O18          6.2477     2.9036    -0.3299 O.2          1    LIG   0.0000
  19 N19          6.3102     3.1946    -2.5372 N.am         1    LIG   0.0000
  20 C20          7.6875     3.7058    -2.4874 C.3          1    LIG   0.0000
  21 C21          5.6118     3.0885    -3.8263 C.3          1    LIG   0.0000
  22 C22          2.3761     1.4111    -0.0130 C.ar         1    LIG   0.0000
  23 C23          1.1649     2.0958     0.0008 C.ar         1    LIG   0.0000
  24 C24         -0.0222     1.3711     0.0105 C.ar         1    LIG   0.0000
  25 Cl25        -1.5710     2.2480     0.0282 Cl           1    LIG   0.0000
  26 C26          0.0001    -0.0204     0.0066 C.ar         1    LIG   0.0000
  27 C27          1.2251    -0.6794    -0.0055 C.ar         1    LIG   0.0000
  28 C28          2.4206     0.0327    -0.0147 C.ar         1    LIG   0.0000
  29 C29          6.3069    -2.8683     0.3746 C.2          1    LIG   0.0000
  30 C30          7.6363    -2.7184     0.1382 C.2          1    LIG   0.0000
  31 C31          8.7469    -3.5847     0.7105 C.3          1    LIG   0.0000
  32 C32         10.0569    -0.9423    -0.2815 C.ar         1    LIG   0.0000
  33 H            3.8822     2.7303     0.5828 H            1    LIG   0.0000
  34 H           13.2072     0.1326    -0.3074 H            1    LIG   0.0000
  35 H           12.1289     0.4894     0.8658 H            1    LIG   0.0000
  36 H           12.6512    -1.0462     0.6765 H            1    LIG   0.0000
  37 H           12.3392     0.1015    -2.4658 H            1    LIG   0.0000
  38 H           11.5289     0.0940    -4.6568 H            1    LIG   0.0000
  39 H           10.4616    -1.0961    -4.9905 H            1    LIG   0.0000
  40 H            9.9395     0.4396    -4.8018 H            1    LIG   0.0000
  41 H            8.4386    -1.1388    -3.1814 H            1    LIG   0.0000
  42 H            5.4879     0.7270     0.1514 H            1    LIG   0.0000
  43 H            4.5754     0.7484     1.5055 H            1    LIG   0.0000
  44 H            4.2227     1.4683    -2.0052 H            1    LIG   0.0000
  45 H            3.6522     2.9872    -1.8211 H            1    LIG   0.0000
  46 H            7.9926     3.9325    -3.4124 H            1    LIG   0.0000
  47 H            7.7182     4.5259    -1.9159 H            1    LIG   0.0000
  48 H            8.2887     3.0069    -2.1000 H            1    LIG   0.0000
  49 H            6.2148     3.4038    -4.5591 H            1    LIG   0.0000
  50 H            5.3579     2.1353    -3.9904 H            1    LIG   0.0000
  51 H            4.7874     3.6542    -3.8063 H            1    LIG   0.0000
  52 H            1.1482     3.0956     0.0038 H            1    LIG   0.0000
  53 H           -0.8541    -0.5403     0.0124 H            1    LIG   0.0000
  54 H            1.2470    -1.6792    -0.0076 H            1    LIG   0.0000
  55 H            5.8617    -3.5560     0.9481 H            1    LIG   0.0000
  56 H            8.3501    -4.2914     1.2964 H            1    LIG   0.0000
  57 H            9.2518    -4.0163    -0.0370 H            1    LIG   0.0000
  58 H            9.3693    -3.0163     1.2486 H            1    LIG   0.0000
  59 H            9.9295    -1.1055     0.6968 H            1    LIG   0.0000
@<TRIPOS>BOND
   1        1        2 1
   2        2        3 ar
   3        3        4 ar
   4        4        5 1
   5        4        6 ar
   6        6        7 ar
   7        7        8 1
   8        8        9 1
   9        9       10 2
  10       10       11 1
  11       11       12 2
  12       11       13 am
  13       13       14 1
  14       14       15 1
  15       15       16 1
  16       16       17 1
  17       17       18 2
  18       17       19 am
  19       19       20 1
  20       19       21 1
  21       15       22 1
  22       22       23 ar
  23       23       24 ar
  24       24       25 1
  25       24       26 ar
  26       26       27 ar
  27       27       28 ar
  28       28       22 ar
  29       28       13 1
  30       10       29 1
  31       29       30 2
  32       30        8 1
  33       30       31 1
  34        7       32 ar
  35       32        2 ar
  36       15       33 1
  37        1       34 1
  38        1       35 1
  39        1       36 1
  40        3       37 1
  41        5       38 1
  42        5       39 1
  43        5       40 1
  44        6       41 1
  45       14       42 1
  46       14       43 1
  47       16       44 1
  48       16       45 1
  49       20       46 1
  50       20       47 1
  51       20       48 1
  52       21       49 1
  53       21       50 1
  54       21       51 1
  55       23       52 1
  56       26       53 1
  57       27       54 1
  58       29       55 1
  59       31       56 1
  60       31       57 1
  61       31       58 1
  62       32       59 1

@<TRIPOS>MOLECULE

  59   62
SMALL
USER_CHARGES
@<TRIPOS>ATOM
   1 C1           9.9875    -0.3009     4.3581 C.3          1    LIG   0.0000
   2 C2           9.8826    -1.3097     3.2263 C.ar         1    LIG   0.0000
   3 C3          10.8552    -2.2964     3.1028 C.ar         1    LIG   0.0000
   4 C4          10.7495    -3.2155     2.0645 C.ar         1    LIG   0.0000
   5 C5          11.8029    -4.3002     1.9125 C.3          1    LIG   0.0000
   6 C6           9.6953    -3.1605     1.1588 C.ar         1    LIG   0.0000
   7 C7           8.7362    -2.1637     1.3052 C.ar         1    LIG   0.0000
   8 N8           7.6693    -2.0933     0.4016 N.pl3        1    LIG   0.0000
   9 N9           6.4252    -1.8170     0.7192 N.2          1    LIG   0.0000
  10 C10          5.6940    -1.8373    -0.3695 C.2          1    LIG   0.0000
  11 C11          4.2676    -1.5839    -0.4344 C.2          1    LIG   0.0000
  12 O12          3.5261    -2.4306    -0.8505 O.2          1    LIG   0.0000
  13 N13          3.7576    -0.3558    -0.0130 N.am         1    LIG   0.0000
  14 C14          4.5531     0.7510     0.5057 C.3          1    LIG   0.0000
  15 C15          3.7896     1.9437    -0.0276 C.3          1    LIG   0.0000
  16 C16          4.2534     2.2883    -1.4337 C.3          1    LIG   0.0000
  17 C17          5.6775     2.8170    -1.3822 C.2          1    LIG   0.0000
  18 O18          6.2477     2.9036    -0.3299 O.2          1    LIG   0.0000
  19 N19          6.3102     3.1946    -2.5372 N.am         1    LIG   0.0000
  20 C20          7.6875     3.7058    -2.4874 C.3          1    LIG   0.0000
  21 C21          5.6118     3.0885    -3.8263 C.3          1    LIG   0.0000
  22 C22          2.3761     1.4111    -0.0130 C.ar         1    LIG   0.0000
  23 C23          1.1649     2.0958     0.0008 C.ar         1    LIG   0.0000
  24 C24         -0.0222     1.3711     0.0105 C.ar         1    LIG   0.0000
  25 Cl25        -1.5710     2.2480     0.0282 Cl           1    LIG   0.0000
  26 C26          0.0001    -0.0204     0.0066 C.ar         1    LIG   0.0000
  27 C27          1.2251    -0.6794    -0.0055 C.ar         1    LIG   0.0000
  28 C28          2.4206     0.0327    -0.0147 C.ar         1    LIG   0.0000
  29 C29          6.5192    -2.1459    -1.4723 C.2          1    LIG   0.0000
  30 C30          7.7594    -2.3012    -0.9400 C.2          1    LIG   0.0000
  31 C31          9.0239    -2.6453    -1.7109 C.3          1    LIG   0.0000
  32 C32          8.8181    -1.2323     2.3348 C.ar         1    LIG   0.0000
  33 H            3.8822     2.7303     0.5828 H            1    LIG   0.0000
  34 H           10.8032    -0.4949     4.9030 H            1    LIG   0.0000
  35 H           10.0524     0.6215     3.9775 H            1    LIG   0.0000
  36 H            9.1757    -0.3656     4.9386 H            1    LIG   0.0000
  37 H           11.6169    -2.3440     3.7491 H            1    LIG   0.0000
  38 H           12.4870    -4.2041     2.6356 H            1    LIG   0.0000
  39 H           11.3689    -5.1985     1.9815 H            1    LIG   0.0000
  40 H           12.2461    -4.2118     1.0205 H            1    LIG   0.0000
  41 H            9.6280    -3.8259     0.4153 H            1    LIG   0.0000
  42 H            5.4879     0.7270     0.1514 H            1    LIG   0.0000
  43 H            4.5754     0.7484     1.5055 H            1    LIG   0.0000
  44 H            4.2227     1.4683    -2.0052 H            1    LIG   0.0000
  45 H            3.6522     2.9872    -1.8211 H            1    LIG   0.0000
  46 H            7.9926     3.9325    -3.4124 H            1    LIG   0.0000
  47 H            7.7182     4.5259    -1.9159 H            1    LIG   0.0000
  48 H            8.2887     3.0069    -2.1000 H            1    LIG   0.0000
  49 H            6.2148     3.4038    -4.5591 H            1    LIG   0.0000
  50 H            5.3579     2.1353    -3.9904 H            1    LIG   0.0000
  51 H            4.7874     3.6542    -3.8063 H            1    LIG   0.0000
  52 H            1.1482     3.0956     0.0038 H            1    LIG   0.0000
  53 H           -0.8541    -0.5403     0.0124 H            1    LIG   0.0000
  54 H            1.2470    -1.6792    -0.0076 H            1    LIG   0.0000
  55 H            6.2507    -2.2313    -2.4318 H            1    LIG   0.0000
  56 H            8.8060    -2.7433    -2.6819 H            1    LIG   0.0000
  57 H            9.6960    -1.9143    -1.5922 H            1    LIG   0.0000
  58 H            9.4014    -3.5045    -1.3656 H            1    LIG   0.0000
  59 H            8.1236    -0.5194     2.4323 H            1    LIG   0.0000
@<TRIPOS>BOND
   1        1        2 1
   2        2        3 ar
   3        3        4 ar
   4        4        5 1
   5        4        6 ar
   6        6        7 ar
   7        7        8 1
   8        8        9 1
   9        9       10 2
  10       10       11 1
  11       11       12 2
  12       11       13 am
  13       13       14 1
  14       14       15 1
  15       15       16 1
  16       16       17 1
  17       17       18 2
  18       17       19 am
  19       19       20 1
  20       19       21 1
  21       15       22 1
  22       22       23 ar
  23       23       24 ar
  24       24       25 1
  25       24       26 ar
  26       26       27 ar
  27       27       28 ar
  28       28       22 ar
  29       28       13 1
  30       10       29 1
  31       29       30 2
  32       30        8 1
  33       30       31 1
  34        7       32 ar
  35       32        2 ar
  36       15       33 1
  37        1       34 1
  38        1       35 1
  39        1       36 1
  40        3       37 1
  41        5       38 1
  42        5       39 1
  43        5       40 1
  44        6       41 1
  45       14       42 1
  46       14       43 1
  47       16       44 1
  48       16       45 1
  49       20       46 1
  50       20       47 1
  51       20       48 1
  52       21       49 1
  53       21       50 1
  54       21       51 1
  55       23       52 1
  56       26       53 1
  57       27       54 1
  58       29       55 1
  59       31       56 1
  60       31       57 1
  61       31       58 1
  62       32       59 1

@<TRIPOS>MOLECULE

  59   62
SMALL
USER_CHARGES
@<TRIPOS>ATOM
   1 C1          11.5502    -4.5442     2.1827 C.3          1    LIG   0.0000
   2 C2          10.6272    -3.3369     2.1895 C.ar         1    LIG   0.0000
   3 C3          10.8566    -2.3108     3.1001 C.ar         1    LIG   0.0000
   4 C4          10.0070    -1.2097     3.0972 C.ar         1    LIG   0.0000
   5 C5          10.2409    -0.0791     4.0853 C.3          1    LIG   0.0000
   6 C6           8.9431    -1.1236     2.2054 C.ar         1    LIG   0.0000
   7 C7           8.7362    -2.1637     1.3052 C.ar         1    LIG   0.0000
   8 N8           7.6693    -2.0933     0.4016 N.pl3        1    LIG   0.0000
   9 N9           6.4252    -1.8170     0.7192 N.2          1    LIG   0.0000
  10 C10          5.6940    -1.8373    -0.3695 C.2          1    LIG   0.0000
  11 C11          4.2676    -1.5839    -0.4344 C.2          1    LIG   0.0000
  12 O12          3.5261    -2.4306    -0.8505 O.2          1    LIG   0.0000
  13 N13          3.7576    -0.3558    -0.0130 N.am         1    LIG   0.0000
  14 C14          4.5531     0.7510     0.5057 C.3          1    LIG   0.0000
  15 C15          3.7896     1.9437    -0.0276 C.3          1    LIG   0.0000
  16 C16          4.2534     2.2883    -1.4337 C.3          1    LIG   0.0000
  17 C17          5.6775     2.8170    -1.3822 C.2          1    LIG   0.0000
  18 O18          6.2477     2.9036    -0.3299 O.2          1    LIG   0.0000
  19 N19          6.3102     3.1946    -2.5372 N.am         1    LIG   0.0000
  20 C20          7.6875     3.7058    -2.4874 C.3          1    LIG   0.0000
  21 C21          5.6118     3.0885    -3.8263 C.3          1    LIG   0.0000
  22 C22          2.3761     1.4111    -0.0130 C.ar         1    LIG   0.0000
  23 C23          1.1649     2.0958     0.0008 C.ar         1    LIG   0.0000
  24 C24         -0.0222     1.3711     0.0105 C.ar         1    LIG   0.0000
  25 Cl25        -1.5710     2.2480     0.0282 Cl           1    LIG   0.0000
  26 C26          0.0001    -0.0204     0.0066 C.ar         1    LIG   0.0000
  27 C27          1.2251    -0.6794    -0.0055 C.ar         1    LIG   0.0000
  28 C28          2.4206     0.0327    -0.0147 C.ar         1    LIG   0.0000
  29 C29          6.5192    -2.1459    -1.4723 C.2          1    LIG   0.0000
  30 C30          7.7594    -2.3012    -0.9400 C.2          1    LIG   0.0000
  31 C31          9.0239    -2.6453    -1.7109 C.3          1    LIG   0.0000
  32 C32          9.5711    -3.2758     1.2867 C.ar         1    LIG   0.0000
  33 H            3.8822     2.7303     0.5828 H            1    LIG   0.0000
  34 H           12.2510    -4.4319     2.8872 H            1    LIG   0.0000
  35 H           11.0193    -5.3708     2.3695 H            1    LIG   0.0000
  36 H           11.9877    -4.6243     1.2871 H            1    LIG   0.0000
  37 H           11.6189    -2.3638     3.7452 H            1    LIG   0.0000
  38 H           11.0374    -0.2908     4.6517 H            1    LIG   0.0000
  39 H           10.4037     0.7718     3.5858 H            1    LIG   0.0000
  40 H            9.4354     0.0257     4.6687 H            1    LIG   0.0000
  41 H            8.3375    -0.3278     2.2112 H            1    LIG   0.0000
  42 H            5.4879     0.7270     0.1514 H            1    LIG   0.0000
  43 H            4.5754     0.7484     1.5055 H            1    LIG   0.0000
  44 H            4.2227     1.4683    -2.0052 H            1    LIG   0.0000
  45 H            3.6522     2.9872    -1.8211 H            1    LIG   0.0000
  46 H            7.9926     3.9325    -3.4124 H            1    LIG   0.0000
  47 H            7.7182     4.5259    -1.9159 H            1    LIG   0.0000
  48 H            8.2887     3.0069    -2.1000 H            1    LIG   0.0000
  49 H            6.2148     3.4038    -4.5591 H            1    LIG   0.0000
  50 H            5.3579     2.1353    -3.9904 H            1    LIG   0.0000
  51 H            4.7874     3.6542    -3.8063 H            1    LIG   0.0000
  52 H            1.1482     3.0956     0.0038 H            1    LIG   0.0000
  53 H           -0.8541    -0.5403     0.0124 H            1    LIG   0.0000
  54 H            1.2470    -1.6792    -0.0076 H            1    LIG   0.0000
  55 H            6.2507    -2.2313    -2.4318 H            1    LIG   0.0000
  56 H            8.8060    -2.7433    -2.6819 H            1    LIG   0.0000
  57 H            9.6960    -1.9143    -1.5922 H            1    LIG   0.0000
  58 H            9.4014    -3.5045    -1.3656 H            1    LIG   0.0000
  59 H            9.4147    -4.0185     0.6357 H            1    LIG   0.0000
@<TRIPOS>BOND
   1        1        2 1
   2        2        3 ar
   3        3        4 ar
   4        4        5 1
   5        4        6 ar
   6        6        7 ar
   7        7        8 1
   8        8        9 1
   9        9       10 2
  10       10       11 1
  11       11       12 2
  12       11       13 am
  13       13       14 1
  14       14       15 1
  15       15       16 1
  16       16       17 1
  17       17       18 2
  18       17       19 am
  19       19       20 1
  20       19       21 1
  21       15       22 1
  22       22       23 ar
  23       23       24 ar
  24       24       25 1
  25       24       26 ar
  26       26       27 ar
  27       27       28 ar
  28       28       22 ar
  29       28       13 1
  30       10       29 1
  31       29       30 2
  32       30        8 1
  33       30       31 1
  34        7       32 ar
  35       32        2 ar
  36       15       33 1
  37        1       34 1
  38        1       35 1
  39        1       36 1
  40        3       37 1
  41        5       38 1
  42        5       39 1
  43        5       40 1
  44        6       41 1
  45       14       42 1
  46       14       43 1
  47       16       44 1
  48       16       45 1
  49       20       46 1
  50       20       47 1
  51       20       48 1
  52       21       49 1
  53       21       50 1
  54       21       51 1
  55       23       52 1
  56       26       53 1
  57       27       54 1
  58       29       55 1
  59       31       56 1
  60       31       57 1
  61       31       58 1
  62       32       59 1

@<TRIPOS>MOLECULE

  59   62
SMALL
USER_CHARGES
@<TRIPOS>ATOM
   1 C1           9.1745    -6.7554    -2.9855 C.3          1    LIG   0.0000
   2 C2           9.4281    -5.3349    -2.5087 C.ar         1    LIG   0.0000
   3 C3          10.6809    -4.7643    -2.7083 C.ar         1    LIG   0.0000
   4 C4          10.9024    -3.4633    -2.2695 C.ar         1    LIG   0.0000
   5 C5          12.2649    -2.8232    -2.4776 C.3          1    LIG   0.0000
   6 C6           9.8982    -2.7347    -1.6409 C.ar         1    LIG   0.0000
   7 C7           8.6545    -3.3291    -1.4539 C.ar         1    LIG   0.0000
   8 N8           7.6331    -2.6101    -0.8219 N.pl3        1    LIG   0.0000
   9 N9           6.3680    -2.6232    -1.1748 N.2          1    LIG   0.0000
  10 C10          5.6940    -1.8373    -0.3695 C.2          1    LIG   0.0000
  11 C11          4.2676    -1.5839    -0.4344 C.2          1    LIG   0.0000
  12 O12          3.5261    -2.4306    -0.8505 O.2          1    LIG   0.0000
  13 N13          3.7576    -0.3558    -0.0130 N.am         1    LIG   0.0000
  14 C14          4.5531     0.7510     0.5057 C.3          1    LIG   0.0000
  15 C15          3.7896     1.9437    -0.0276 C.3          1    LIG   0.0000
  16 C16          4.2534     2.2883    -1.4337 C.3          1    LIG   0.0000
  17 C17          5.6775     2.8170    -1.3822 C.2          1    LIG   0.0000
  18 O18          6.2477     2.9036    -0.3299 O.2          1    LIG   0.0000
  19 N19          6.3102     3.1946    -2.5372 N.am         1    LIG   0.0000
  20 C20          7.6875     3.7058    -2.4874 C.3          1    LIG   0.0000
  21 C21          5.6118     3.0885    -3.8263 C.3          1    LIG   0.0000
  22 C22          2.3761     1.4111    -0.0130 C.ar         1    LIG   0.0000
  23 C23          1.1649     2.0958     0.0008 C.ar         1    LIG   0.0000
  24 C24         -0.0222     1.3711     0.0105 C.ar         1    LIG   0.0000
  25 Cl25        -1.5710     2.2480     0.0282 Cl           1    LIG   0.0000
  26 C26          0.0001    -0.0204     0.0066 C.ar         1    LIG   0.0000
  27 C27          1.2251    -0.6794    -0.0055 C.ar         1    LIG   0.0000
  28 C28          2.4206     0.0327    -0.0147 C.ar         1    LIG   0.0000
  29 C29          6.5809    -1.2755     0.5739 C.2          1    LIG   0.0000
  30 C30          7.7962    -1.7895     0.2510 C.2          1    LIG   0.0000
  31 C31          9.1061    -1.4980     0.9658 C.3          1    LIG   0.0000
  32 C32          8.4064    -4.6284    -1.8834 C.ar         1    LIG   0.0000
  33 H            3.8822     2.7303     0.5828 H            1    LIG   0.0000
  34 H           10.0043    -7.1179    -3.4097 H            1    LIG   0.0000
  35 H            8.9210    -7.3284    -2.2061 H            1    LIG   0.0000
  36 H            8.4311    -6.7548    -3.6544 H            1    LIG   0.0000
  37 H           11.4092    -5.2803    -3.1592 H            1    LIG   0.0000
  38 H           12.8707    -3.4712    -2.9393 H            1    LIG   0.0000
  39 H           12.1651    -2.0019    -3.0392 H            1    LIG   0.0000
  40 H           12.6556    -2.5753    -1.5910 H            1    LIG   0.0000
  41 H           10.0673    -1.7998    -1.3287 H            1    LIG   0.0000
  42 H            5.4879     0.7270     0.1514 H            1    LIG   0.0000
  43 H            4.5754     0.7484     1.5055 H            1    LIG   0.0000
  44 H            4.2227     1.4683    -2.0052 H            1    LIG   0.0000
  45 H            3.6522     2.9872    -1.8211 H            1    LIG   0.0000
  46 H            7.9926     3.9325    -3.4124 H            1    LIG   0.0000
  47 H            7.7182     4.5259    -1.9159 H            1    LIG   0.0000
  48 H            8.2887     3.0069    -2.1000 H            1    LIG   0.0000
  49 H            6.2148     3.4038    -4.5591 H            1    LIG   0.0000
  50 H            5.3579     2.1353    -3.9904 H            1    LIG   0.0000
  51 H            4.7874     3.6542    -3.8063 H            1    LIG   0.0000
  52 H            1.1482     3.0956     0.0038 H            1    LIG   0.0000
  53 H           -0.8541    -0.5403     0.0124 H            1    LIG   0.0000
  54 H            1.2470    -1.6792    -0.0076 H            1    LIG   0.0000
  55 H            6.3631    -0.6404     1.3151 H            1    LIG   0.0000
  56 H            8.9402    -0.8620     1.7194 H            1    LIG   0.0000
  57 H            9.4859    -2.3500     1.3261 H            1    LIG   0.0000
  58 H            9.7536    -1.0904     0.3219 H            1    LIG   0.0000
  59 H            7.5090    -5.0473    -1.7449 H            1    LIG   0.0000
@<TRIPOS>BOND
   1        1        2 1
   2        2        3 ar
   3        3        4 ar
   4        4        5 1
   5        4        6 ar
   6        6        7 ar
   7        7        8 1
   8        8        9 1
   9        9       10 2
  10       10       11 1
  11       11       12 2
  12       11       13 am
  13       13       14 1
  14       14       15 1
  15       15       16 1
  16       16       17 1
  17       17       18 2
  18       17       19 am
  19       19       20 1
  20       19       21 1
  21       15       22 1
  22       22       23 ar
  23       23       24 ar
  24       24       25 1
  25       24       26 ar
  26       26       27 ar
  27       27       28 ar
  28       28       22 ar
  29       28       13 1
  30       10       29 1
  31       29       30 2
  32       30        8 1
  33       30       31 1
  34        7       32 ar
  35       32        2 ar
  36       15       33 1
  37        1       34 1
  38        1       35 1
  39        1       36 1
  40        3       37 1
  41        5       38 1
  42        5       39 1
  43        5       40 1
  44        6       41 1
  45       14       42 1
  46       14       43 1
  47       16       44 1
  48       16       45 1
  49       20       46 1
  50       20       47 1
  51       20       48 1
  52       21       49 1
  53       21       50 1
  54       21       51 1
  55       23       52 1
  56       26       53 1
  57       27       54 1
  58       29       55 1
  59       31       56 1
  60       31       57 1
  61       31       58 1
  62       32       59 1

@<TRIPOS>MOLECULE

  59   62
SMALL
USER_CHARGES
@<TRIPOS>ATOM
   1 C1          12.1098    -2.6872    -2.8698 C.3          1    LIG   0.0000
   2 C2          10.8286    -3.3919    -2.4559 C.ar         1    LIG   0.0000
   3 C3          10.6872    -4.7517    -2.7125 C.ar         1    LIG   0.0000
   4 C4           9.5113    -5.3875    -2.3286 C.ar         1    LIG   0.0000
   5 C5           9.3378    -6.8724    -2.6015 C.3          1    LIG   0.0000
   6 C6           8.4872    -4.6881    -1.6987 C.ar         1    LIG   0.0000
   7 C7           8.6545    -3.3291    -1.4539 C.ar         1    LIG   0.0000
   8 N8           7.6331    -2.6101    -0.8219 N.pl3        1    LIG   0.0000
   9 N9           6.3680    -2.6232    -1.1748 N.2          1    LIG   0.0000
  10 C10          5.6940    -1.8373    -0.3695 C.2          1    LIG   0.0000
  11 C11          4.2676    -1.5839    -0.4344 C.2          1    LIG   0.0000
  12 O12          3.5261    -2.4306    -0.8505 O.2          1    LIG   0.0000
  13 N13          3.7576    -0.3558    -0.0130 N.am         1    LIG   0.0000
  14 C14          4.5531     0.7510     0.5057 C.3          1    LIG   0.0000
  15 C15          3.7896     1.9437    -0.0276 C.3          1    LIG   0.0000
  16 C16          4.2534     2.2883    -1.4337 C.3          1    LIG   0.0000
  17 C17          5.6775     2.8170    -1.3822 C.2          1    LIG   0.0000
  18 O18          6.2477     2.9036    -0.3299 O.2          1    LIG   0.0000
  19 N19          6.3102     3.1946    -2.5372 N.am         1    LIG   0.0000
  20 C20          7.6875     3.7058    -2.4874 C.3          1    LIG   0.0000
  21 C21          5.6118     3.0885    -3.8263 C.3          1    LIG   0.0000
  22 C22          2.3761     1.4111    -0.0130 C.ar         1    LIG   0.0000
  23 C23          1.1649     2.0958     0.0008 C.ar         1    LIG   0.0000
  24 C24         -0.0222     1.3711     0.0105 C.ar         1    LIG   0.0000
  25 Cl25        -1.5710     2.2480     0.0282 Cl           1    LIG   0.0000
  26 C26          0.0001    -0.0204     0.0066 C.ar         1    LIG   0.0000
  27 C27          1.2251    -0.6794    -0.0055 C.ar         1    LIG   0.0000
  28 C28          2.4206     0.0327    -0.0147 C.ar         1    LIG   0.0000
  29 C29          6.5809    -1.2755     0.5739 C.2          1    LIG   0.0000
  30 C30          7.7962    -1.7895     0.2510 C.2          1    LIG   0.0000
  31 C31          9.1061    -1.4980     0.9658 C.3          1    LIG   0.0000
  32 C32          9.8204    -2.6691    -1.8273 C.ar         1    LIG   0.0000
  33 H            3.8822     2.7303     0.5828 H            1    LIG   0.0000
  34 H           12.7258    -3.3439    -3.3049 H            1    LIG   0.0000
  35 H           11.8938    -1.9546    -3.5153 H            1    LIG   0.0000
  36 H           12.5530    -2.2994    -2.0616 H            1    LIG   0.0000
  37 H           11.4179    -5.2629    -3.1650 H            1    LIG   0.0000
  38 H           10.1556    -7.2256    -3.0559 H            1    LIG   0.0000
  39 H            9.2015    -7.3564    -1.7371 H            1    LIG   0.0000
  40 H            8.5423    -7.0123    -3.1910 H            1    LIG   0.0000
  41 H            7.6454    -5.1542    -1.4266 H            1    LIG   0.0000
  42 H            5.4879     0.7270     0.1514 H            1    LIG   0.0000
  43 H            4.5754     0.7484     1.5055 H            1    LIG   0.0000
  44 H            4.2227     1.4683    -2.0052 H            1    LIG   0.0000
  45 H            3.6522     2.9872    -1.8211 H            1    LIG   0.0000
  46 H            7.9926     3.9325    -3.4124 H            1    LIG   0.0000
  47 H            7.7182     4.5259    -1.9159 H            1    LIG   0.0000
  48 H            8.2887     3.0069    -2.1000 H            1    LIG   0.0000
  49 H            6.2148     3.4038    -4.5591 H            1    LIG   0.0000
  50 H            5.3579     2.1353    -3.9904 H            1    LIG   0.0000
  51 H            4.7874     3.6542    -3.8063 H            1    LIG   0.0000
  52 H            1.1482     3.0956     0.0038 H            1    LIG   0.0000
  53 H           -0.8541    -0.5403     0.0124 H            1    LIG   0.0000
  54 H            1.2470    -1.6792    -0.0076 H            1    LIG   0.0000
  55 H            6.3631    -0.6404     1.3151 H            1    LIG   0.0000
  56 H            8.9402    -0.8620     1.7194 H            1    LIG   0.0000
  57 H            9.4859    -2.3500     1.3261 H            1    LIG   0.0000
  58 H            9.7536    -1.0904     0.3219 H            1    LIG   0.0000
  59 H            9.9318    -1.6919    -1.6468 H            1    LIG   0.0000
@<TRIPOS>BOND
   1        1        2 1
   2        2        3 ar
   3        3        4 ar
   4        4        5 1
   5        4        6 ar
   6        6        7 ar
   7        7        8 1
   8        8        9 1
   9        9       10 2
  10       10       11 1
  11       11       12 2
  12       11       13 am
  13       13       14 1
  14       14       15 1
  15       15       16 1
  16       16       17 1
  17       17       18 2
  18       17       19 am
  19       19       20 1
  20       19       21 1
  21       15       22 1
  22       22       23 ar
  23       23       24 ar
  24       24       25 1
  25       24       26 ar
  26       26       27 ar
  27       27       28 ar
  28       28       22 ar
  29       28       13 1
  30       10       29 1
  31       29       30 2
  32       30        8 1
  33       30       31 1
  34        7       32 ar
  35       32        2 ar
  36       15       33 1
  37        1       34 1
  38        1       35 1
  39        1       36 1
  40        3       37 1
  41        5       38 1
  42        5       39 1
  43        5       40 1
  44        6       41 1
  45       14       42 1
  46       14       43 1
  47       16       44 1
  48       16       45 1
  49       20       46 1
  50       20       47 1
  51       20       48 1
  52       21       49 1
  53       21       50 1
  54       21       51 1
  55       23       52 1
  56       26       53 1
  57       27       54 1
  58       29       55 1
  59       31       56 1
  60       31       57 1
  61       31       58 1
  62       32       59 1

@<TRIPOS>MOLECULE

  59   62
SMALL
USER_CHARGES
@<TRIPOS>ATOM
   1 C1           0.5469    -3.0005     6.8830 C.3          1    LIG   0.0000
   2 C2           0.2730    -3.5198     5.4813 C.ar         1    LIG   0.0000
   3 C3          -0.9103    -4.2065     5.2298 C.ar         1    LIG   0.0000
   4 C4          -1.1522    -4.6765     3.9435 C.ar         1    LIG   0.0000
   5 C5          -2.4388    -5.4299     3.6495 C.3          1    LIG   0.0000
   6 C6          -0.2357    -4.4707     2.9176 C.ar         1    LIG   0.0000
   7 C7           0.9396    -3.7808     3.1961 C.ar         1    LIG   0.0000
   8 N8           1.8731    -3.5660     2.1753 N.pl3        1    LIG   0.0000
   9 N9           2.5551    -2.4582     1.9939 N.2          1    LIG   0.0000
  10 C10          3.3325    -2.6042     0.9477 C.2          1    LIG   0.0000
  11 C11          4.2396    -1.6020     0.4224 C.2          1    LIG   0.0000
  12 O12          5.4160    -1.8308     0.3608 O.2          1    LIG   0.0000
  13 N13          3.7430    -0.3680    -0.0126 N.am         1    LIG   0.0000
  14 C14          4.5263     0.7391    -0.5604 C.3          1    LIG   0.0000
  15 C15          3.7872     1.9447    -0.0272 C.3          1    LIG   0.0000
  16 C16          3.9433     3.1529    -0.9367 C.3          1    LIG   0.0000
  17 C17          5.3883     3.6236    -0.9104 C.2          1    LIG   0.0000
  18 O18          6.1949     3.0472    -0.2342 O.2          1    LIG   0.0000
  19 N19          5.7700     4.7059    -1.6586 N.am         1    LIG   0.0000
  20 C20          7.1675     5.1611    -1.6331 C.3          1    LIG   0.0000
  21 C21          4.7819     5.4120    -2.4870 C.3          1    LIG   0.0000
  22 C22          2.3616     1.4239    -0.0087 C.ar         1    LIG   0.0000
  23 C23          1.1516     2.1091    -0.0001 C.ar         1    LIG   0.0000
  24 C24         -0.0229     1.3692     0.0107 C.ar         1    LIG   0.0000
  25 Cl25        -1.5701     2.2470     0.0290 Cl           1    LIG   0.0000
  26 C26         -0.0068    -0.0210     0.0114 C.ar         1    LIG   0.0000
  27 C27          1.2207    -0.6727     0.0031 C.ar         1    LIG   0.0000
  28 C28          2.4128     0.0470    -0.0063 C.ar         1    LIG   0.0000
  29 C29          3.1456    -3.8968     0.4123 C.2          1    LIG   0.0000
  30 C30          2.2140    -4.4704     1.2177 C.2          1    LIG   0.0000
  31 C31          1.6540    -5.8764     1.0725 C.3          1    LIG   0.0000
  32 C32          1.2059    -3.3000     4.4737 C.ar         1    LIG   0.0000
  33 H            4.0932     2.1618     0.8997 H            1    LIG   0.0000
  34 H           -0.2165    -3.2407     7.4826 H            1    LIG   0.0000
  35 H            1.3880    -3.4131     7.2328 H            1    LIG   0.0000
  36 H            0.6495    -2.0062     6.8560 H            1    LIG   0.0000
  37 H           -1.5752    -4.3594     5.9610 H            1    LIG   0.0000
  38 H           -2.9860    -5.4933     4.4841 H            1    LIG   0.0000
  39 H           -2.9575    -4.9424     2.9471 H            1    LIG   0.0000
  40 H           -2.2196    -6.3496     3.3239 H            1    LIG   0.0000
  41 H           -0.4186    -4.8126     1.9958 H            1    LIG   0.0000
  42 H            4.5244     0.7252    -1.5603 H            1    LIG   0.0000
  43 H            5.4693     0.7156    -0.2285 H            1    LIG   0.0000
  44 H            3.6916     2.9013    -1.8713 H            1    LIG   0.0000
  45 H            3.3469     3.8895    -0.6177 H            1    LIG   0.0000
  46 H            7.2701     5.9558    -2.2314 H            1    LIG   0.0000
  47 H            7.4191     5.4127    -0.6986 H            1    LIG   0.0000
  48 H            7.7639     4.4245    -1.9521 H            1    LIG   0.0000
  49 H            5.2270     6.1707    -2.9627 H            1    LIG   0.0000
  50 H            4.3957     4.7787    -3.1576 H            1    LIG   0.0000
  51 H            4.0510     5.7669    -1.9041 H            1    LIG   0.0000
  52 H            1.1282     3.1089    -0.0017 H            1    LIG   0.0000
  53 H           -0.8608    -0.5412     0.0178 H            1    LIG   0.0000
  54 H            1.2482    -1.6723     0.0039 H            1    LIG   0.0000
  55 H            3.5982    -4.3005    -0.3828 H            1    LIG   0.0000
  56 H            2.0771    -6.3241     0.2848 H            1    LIG   0.0000
  57 H            1.8521    -6.4012     1.9004 H            1    LIG   0.0000
  58 H            0.6644    -5.8287     0.9370 H            1    LIG   0.0000
  59 H            2.0535    -2.8048     4.6644 H            1    LIG   0.0000
@<TRIPOS>BOND
   1        1        2 1
   2        2        3 ar
   3        3        4 ar
   4        4        5 1
   5        4        6 ar
   6        6        7 ar
   7        7        8 1
   8        8        9 1
   9        9       10 2
  10       10       11 1
  11       11       12 2
  12       11       13 am
  13       13       14 1
  14       14       15 1
  15       15       16 1
  16       16       17 1
  17       17       18 2
  18       17       19 am
  19       19       20 1
  20       19       21 1
  21       15       22 1
  22       22       23 ar
  23       23       24 ar
  24       24       25 1
  25       24       26 ar
  26       26       27 ar
  27       27       28 ar
  28       28       22 ar
  29       28       13 1
  30       10       29 1
  31       29       30 2
  32       30        8 1
  33       30       31 1
  34        7       32 ar
  35       32        2 ar
  36       15       33 1
  37        1       34 1
  38        1       35 1
  39        1       36 1
  40        3       37 1
  41        5       38 1
  42        5       39 1
  43        5       40 1
  44        6       41 1
  45       14       42 1
  46       14       43 1
  47       16       44 1
  48       16       45 1
  49       20       46 1
  50       20       47 1
  51       20       48 1
  52       21       49 1
  53       21       50 1
  54       21       51 1
  55       23       52 1
  56       26       53 1
  57       27       54 1
  58       29       55 1
  59       31       56 1
  60       31       57 1
  61       31       58 1
  62       32       59 1

@<TRIPOS>MOLECULE

  59   62
SMALL
USER_CHARGES
@<TRIPOS>ATOM
   1 C1          -2.6174    -5.0339     3.5614 C.3          1    LIG   0.0000
   2 C2          -1.2388    -4.4882     3.8950 C.ar         1    LIG   0.0000
   3 C3          -0.9211    -4.2075     5.2198 C.ar         1    LIG   0.0000
   4 C4           0.3436    -3.7096     5.5148 C.ar         1    LIG   0.0000
   5 C5           0.7089    -3.3958     6.9561 C.3          1    LIG   0.0000
   6 C6           1.2832    -3.4915     4.5127 C.ar         1    LIG   0.0000
   7 C7           0.9396    -3.7808     3.1961 C.ar         1    LIG   0.0000
   8 N8           1.8731    -3.5660     2.1753 N.pl3        1    LIG   0.0000
   9 N9           2.5551    -2.4582     1.9939 N.2          1    LIG   0.0000
  10 C10          3.3325    -2.6042     0.9477 C.2          1    LIG   0.0000
  11 C11          4.2396    -1.6020     0.4224 C.2          1    LIG   0.0000
  12 O12          5.4160    -1.8308     0.3608 O.2          1    LIG   0.0000
  13 N13          3.7430    -0.3680    -0.0126 N.am         1    LIG   0.0000
  14 C14          4.5263     0.7391    -0.5604 C.3          1    LIG   0.0000
  15 C15          3.7872     1.9447    -0.0272 C.3          1    LIG   0.0000
  16 C16          3.9433     3.1529    -0.9367 C.3          1    LIG   0.0000
  17 C17          5.3883     3.6236    -0.9104 C.2          1    LIG   0.0000
  18 O18          6.1949     3.0472    -0.2342 O.2          1    LIG   0.0000
  19 N19          5.7700     4.7059    -1.6586 N.am         1    LIG   0.0000
  20 C20          7.1675     5.1611    -1.6331 C.3          1    LIG   0.0000
  21 C21          4.7819     5.4120    -2.4870 C.3          1    LIG   0.0000
  22 C22          2.3616     1.4239    -0.0087 C.ar         1    LIG   0.0000
  23 C23          1.1516     2.1091    -0.0001 C.ar         1    LIG   0.0000
  24 C24         -0.0229     1.3692     0.0107 C.ar         1    LIG   0.0000
  25 Cl25        -1.5701     2.2470     0.0290 Cl           1    LIG   0.0000
  26 C26         -0.0068    -0.0210     0.0114 C.ar         1    LIG   0.0000
  27 C27          1.2207    -0.6727     0.0031 C.ar         1    LIG   0.0000
  28 C28          2.4128     0.0470    -0.0063 C.ar         1    LIG   0.0000
  29 C29          3.1456    -3.8968     0.4123 C.2          1    LIG   0.0000
  30 C30          2.2140    -4.4704     1.2177 C.2          1    LIG   0.0000
  31 C31          1.6540    -5.8764     1.0725 C.3          1    LIG   0.0000
  32 C32         -0.3179    -4.2798     2.8740 C.ar         1    LIG   0.0000
  33 H            4.0932     2.1618     0.8997 H            1    LIG   0.0000
  34 H           -3.1524    -5.1241     4.4014 H            1    LIG   0.0000
  35 H           -3.0818    -4.4068     2.9361 H            1    LIG   0.0000
  36 H           -2.5250    -5.9300     3.1273 H            1    LIG   0.0000
  37 H           -1.5900    -4.3609     5.9472 H            1    LIG   0.0000
  38 H           -0.0678    -3.6054     7.5501 H            1    LIG   0.0000
  39 H            1.4959    -3.9494     7.2286 H            1    LIG   0.0000
  40 H            0.9392    -2.4261     7.0381 H            1    LIG   0.0000
  41 H            2.1900    -3.1331     4.7348 H            1    LIG   0.0000
  42 H            4.5244     0.7252    -1.5603 H            1    LIG   0.0000
  43 H            5.4693     0.7156    -0.2285 H            1    LIG   0.0000
  44 H            3.6916     2.9013    -1.8713 H            1    LIG   0.0000
  45 H            3.3469     3.8895    -0.6177 H            1    LIG   0.0000
  46 H            7.2701     5.9558    -2.2314 H            1    LIG   0.0000
  47 H            7.4191     5.4127    -0.6986 H            1    LIG   0.0000
  48 H            7.7639     4.4245    -1.9521 H            1    LIG   0.0000
  49 H            5.2270     6.1707    -2.9627 H            1    LIG   0.0000
  50 H            4.3957     4.7787    -3.1576 H            1    LIG   0.0000
  51 H            4.0510     5.7669    -1.9041 H            1    LIG   0.0000
  52 H            1.1282     3.1089    -0.0017 H            1    LIG   0.0000
  53 H           -0.8608    -0.5412     0.0178 H            1    LIG   0.0000
  54 H            1.2482    -1.6723     0.0039 H            1    LIG   0.0000
  55 H            3.5982    -4.3005    -0.3828 H            1    LIG   0.0000
  56 H            2.0771    -6.3241     0.2848 H            1    LIG   0.0000
  57 H            1.8521    -6.4012     1.9004 H            1    LIG   0.0000
  58 H            0.6644    -5.8287     0.9370 H            1    LIG   0.0000
  59 H           -0.5558    -4.4851     1.9246 H            1    LIG   0.0000
@<TRIPOS>BOND
   1        1        2 1
   2        2        3 ar
   3        3        4 ar
   4        4        5 1
   5        4        6 ar
   6        6        7 ar
   7        7        8 1
   8        8        9 1
   9        9       10 2
  10       10       11 1
  11       11       12 2
  12       11       13 am
  13       13       14 1
  14       14       15 1
  15       15       16 1
  16       16       17 1
  17       17       18 2
  18       17       19 am
  19       19       20 1
  20       19       21 1
  21       15       22 1
  22       22       23 ar
  23       23       24 ar
  24       24       25 1
  25       24       26 ar
  26       26       27 ar
  27       27       28 ar
  28       28       22 ar
  29       28       13 1
  30       10       29 1
  31       29       30 2
  32       30        8 1
  33       30       31 1
  34        7       32 ar
  35       32        2 ar
  36       15       33 1
  37        1       34 1
  38        1       35 1
  39        1       36 1
  40        3       37 1
  41        5       38 1
  42        5       39 1
  43        5       40 1
  44        6       41 1
  45       14       42 1
  46       14       43 1
  47       16       44 1
  48       16       45 1
  49       20       46 1
  50       20       47 1
  51       20       48 1
  52       21       49 1
  53       21       50 1
  54       21       51 1
  55       23       52 1
  56       26       53 1
  57       27       54 1
  58       29       55 1
  59       31       56 1
  60       31       57 1
  61       31       58 1
  62       32       59 1

@<TRIPOS>MOLECULE

  59   62
SMALL
USER_CHARGES
@<TRIPOS>ATOM
   1 C1           9.9304    -0.4580    -4.4361 C.3          1    LIG   0.0000
   2 C2           9.8220    -1.4525    -3.2921 C.ar         1    LIG   0.0000
   3 C3          10.7826    -2.4506    -3.1657 C.ar         1    LIG   0.0000
   4 C4          10.6751    -3.3550    -2.1147 C.ar         1    LIG   0.0000
   5 C5          11.7142    -4.4531    -1.9606 C.3          1    LIG   0.0000
   6 C6           9.6308    -3.2744    -1.1994 C.ar         1    LIG   0.0000
   7 C7           8.6838    -2.2666    -1.3489 C.ar         1    LIG   0.0000
   8 N8           7.6258    -2.1720    -0.4372 N.pl3        1    LIG   0.0000
   9 N9           6.3823    -1.8845    -0.7476 N.2          1    LIG   0.0000
  10 C10          5.6612    -1.8785     0.3480 C.2          1    LIG   0.0000
  11 C11          4.2396    -1.6020     0.4224 C.2          1    LIG   0.0000
  12 O12          3.4890    -2.4314     0.8571 O.2          1    LIG   0.0000
  13 N13          3.7430    -0.3680    -0.0126 N.am         1    LIG   0.0000
  14 C14          4.5263     0.7391    -0.5604 C.3          1    LIG   0.0000
  15 C15          3.7872     1.9447    -0.0272 C.3          1    LIG   0.0000
  16 C16          3.9433     3.1529    -0.9367 C.3          1    LIG   0.0000
  17 C17          5.3883     3.6236    -0.9104 C.2          1    LIG   0.0000
  18 O18          6.1949     3.0472    -0.2342 O.2          1    LIG   0.0000
  19 N19          5.7700     4.7059    -1.6586 N.am         1    LIG   0.0000
  20 C20          7.1675     5.1611    -1.6331 C.3          1    LIG   0.0000
  21 C21          4.7819     5.4120    -2.4870 C.3          1    LIG   0.0000
  22 C22          2.3616     1.4239    -0.0087 C.ar         1    LIG   0.0000
  23 C23          1.1516     2.1091    -0.0001 C.ar         1    LIG   0.0000
  24 C24         -0.0229     1.3692     0.0107 C.ar         1    LIG   0.0000
  25 Cl25        -1.5701     2.2470     0.0290 Cl           1    LIG   0.0000
  26 C26         -0.0068    -0.0210     0.0114 C.ar         1    LIG   0.0000
  27 C27          1.2207    -0.6727     0.0031 C.ar         1    LIG   0.0000
  28 C28          2.4128     0.0470    -0.0063 C.ar         1    LIG   0.0000
  29 C29          6.4918    -2.1854     1.4472 C.2          1    LIG   0.0000
  30 C30          7.7254    -2.3622     0.9064 C.2          1    LIG   0.0000
  31 C31          8.9922    -2.7124     1.6706 C.3          1    LIG   0.0000
  32 C32          8.7680    -1.3492    -2.3907 C.ar         1    LIG   0.0000
  33 H            4.0932     2.1618     0.8997 H            1    LIG   0.0000
  34 H           10.7374    -0.6703    -4.9871 H            1    LIG   0.0000
  35 H            9.1118    -0.5167    -5.0075 H            1    LIG   0.0000
  36 H           10.0132     0.4675    -4.0665 H            1    LIG   0.0000
  37 H           11.5369    -2.5167    -3.8188 H            1    LIG   0.0000
  38 H           12.3924    -4.3752    -2.6913 H            1    LIG   0.0000
  39 H           12.1675    -4.3611    -1.0739 H            1    LIG   0.0000
  40 H           11.2666    -5.3457    -2.0151 H            1    LIG   0.0000
  41 H            9.5621    -3.9296    -0.4470 H            1    LIG   0.0000
  42 H            4.5244     0.7252    -1.5603 H            1    LIG   0.0000
  43 H            5.4693     0.7156    -0.2285 H            1    LIG   0.0000
  44 H            3.6916     2.9013    -1.8713 H            1    LIG   0.0000
  45 H            3.3469     3.8895    -0.6177 H            1    LIG   0.0000
  46 H            7.2701     5.9558    -2.2314 H            1    LIG   0.0000
  47 H            7.4191     5.4127    -0.6986 H            1    LIG   0.0000
  48 H            7.7639     4.4245    -1.9521 H            1    LIG   0.0000
  49 H            5.2270     6.1707    -2.9627 H            1    LIG   0.0000
  50 H            4.3957     4.7787    -3.1576 H            1    LIG   0.0000
  51 H            4.0510     5.7669    -1.9041 H            1    LIG   0.0000
  52 H            1.1282     3.1089    -0.0017 H            1    LIG   0.0000
  53 H           -0.8608    -0.5412     0.0178 H            1    LIG   0.0000
  54 H            1.2482    -1.6723     0.0039 H            1    LIG   0.0000
  55 H            6.2304    -2.2567     2.4098 H            1    LIG   0.0000
  56 H            8.7819    -2.7938     2.6449 H            1    LIG   0.0000
  57 H            9.3550    -3.5814     1.3342 H            1    LIG   0.0000
  58 H            9.6728    -1.9924     1.5356 H            1    LIG   0.0000
  59 H            8.0826    -0.6278    -2.4900 H            1    LIG   0.0000
@<TRIPOS>BOND
   1        1        2 1
   2        2        3 ar
   3        3        4 ar
   4        4        5 1
   5        4        6 ar
   6        6        7 ar
   7        7        8 1
   8        8        9 1
   9        9       10 2
  10       10       11 1
  11       11       12 2
  12       11       13 am
  13       13       14 1
  14       14       15 1
  15       15       16 1
  16       16       17 1
  17       17       18 2
  18       17       19 am
  19       19       20 1
  20       19       21 1
  21       15       22 1
  22       22       23 ar
  23       23       24 ar
  24       24       25 1
  25       24       26 ar
  26       26       27 ar
  27       27       28 ar
  28       28       22 ar
  29       28       13 1
  30       10       29 1
  31       29       30 2
  32       30        8 1
  33       30       31 1
  34        7       32 ar
  35       32        2 ar
  36       15       33 1
  37        1       34 1
  38        1       35 1
  39        1       36 1
  40        3       37 1
  41        5       38 1
  42        5       39 1
  43        5       40 1
  44        6       41 1
  45       14       42 1
  46       14       43 1
  47       16       44 1
  48       16       45 1
  49       20       46 1
  50       20       47 1
  51       20       48 1
  52       21       49 1
  53       21       50 1
  54       21       51 1
  55       23       52 1
  56       26       53 1
  57       27       54 1
  58       29       55 1
  59       31       56 1
  60       31       57 1
  61       31       58 1
  62       32       59 1

@<TRIPOS>MOLECULE

  59   62
SMALL
USER_CHARGES
@<TRIPOS>ATOM
   1 C1          11.4617    -4.6916    -2.2198 C.3          1    LIG   0.0000
   2 C2          10.5546    -3.4723    -2.2324 C.ar         1    LIG   0.0000
   3 C3          10.7897    -2.4595    -3.1565 C.ar         1    LIG   0.0000
   4 C4           9.9531    -1.3486    -3.1606 C.ar         1    LIG   0.0000
   5 C5          10.1947    -0.2313    -4.1620 C.3          1    LIG   0.0000
   6 C6           8.8967    -1.2394    -2.2624 C.ar         1    LIG   0.0000
   7 C7           8.6838    -2.2666    -1.3489 C.ar         1    LIG   0.0000
   8 N8           7.6258    -2.1720    -0.4372 N.pl3        1    LIG   0.0000
   9 N9           6.3823    -1.8845    -0.7476 N.2          1    LIG   0.0000
  10 C10          5.6612    -1.8785     0.3480 C.2          1    LIG   0.0000
  11 C11          4.2396    -1.6020     0.4224 C.2          1    LIG   0.0000
  12 O12          3.4890    -2.4314     0.8571 O.2          1    LIG   0.0000
  13 N13          3.7430    -0.3680    -0.0126 N.am         1    LIG   0.0000
  14 C14          4.5263     0.7391    -0.5604 C.3          1    LIG   0.0000
  15 C15          3.7872     1.9447    -0.0272 C.3          1    LIG   0.0000
  16 C16          3.9433     3.1529    -0.9367 C.3          1    LIG   0.0000
  17 C17          5.3883     3.6236    -0.9104 C.2          1    LIG   0.0000
  18 O18          6.1949     3.0472    -0.2342 O.2          1    LIG   0.0000
  19 N19          5.7700     4.7059    -1.6586 N.am         1    LIG   0.0000
  20 C20          7.1675     5.1611    -1.6331 C.3          1    LIG   0.0000
  21 C21          4.7819     5.4120    -2.4870 C.3          1    LIG   0.0000
  22 C22          2.3616     1.4239    -0.0087 C.ar         1    LIG   0.0000
  23 C23          1.1516     2.1091    -0.0001 C.ar         1    LIG   0.0000
  24 C24         -0.0229     1.3692     0.0107 C.ar         1    LIG   0.0000
  25 Cl25        -1.5701     2.2470     0.0290 Cl           1    LIG   0.0000
  26 C26         -0.0068    -0.0210     0.0114 C.ar         1    LIG   0.0000
  27 C27          1.2207    -0.6727     0.0031 C.ar         1    LIG   0.0000
  28 C28          2.4128     0.0470    -0.0063 C.ar         1    LIG   0.0000
  29 C29          6.4918    -2.1854     1.4472 C.2          1    LIG   0.0000
  30 C30          7.7254    -2.3622     0.9064 C.2          1    LIG   0.0000
  31 C31          8.9922    -2.7124     1.6706 C.3          1    LIG   0.0000
  32 C32          9.5053    -3.3885    -1.3236 C.ar         1    LIG   0.0000
  33 H            4.0932     2.1618     0.8997 H            1    LIG   0.0000
  34 H           12.1593    -4.5953    -2.9298 H            1    LIG   0.0000
  35 H           11.9040    -4.7688    -1.3263 H            1    LIG   0.0000
  36 H           10.9188    -5.5128    -2.3951 H            1    LIG   0.0000
  37 H           11.5467    -2.5290    -3.8061 H            1    LIG   0.0000
  38 H           10.9844    -0.4591    -4.7316 H            1    LIG   0.0000
  39 H            9.3866    -0.1219    -4.7408 H            1    LIG   0.0000
  40 H           10.3720     0.6225    -3.6724 H            1    LIG   0.0000
  41 H            8.3007    -0.4365    -2.2732 H            1    LIG   0.0000
  42 H            4.5244     0.7252    -1.5603 H            1    LIG   0.0000
  43 H            5.4693     0.7156    -0.2285 H            1    LIG   0.0000
  44 H            3.6916     2.9013    -1.8713 H            1    LIG   0.0000
  45 H            3.3469     3.8895    -0.6177 H            1    LIG   0.0000
  46 H            7.2701     5.9558    -2.2314 H            1    LIG   0.0000
  47 H            7.4191     5.4127    -0.6986 H            1    LIG   0.0000
  48 H            7.7639     4.4245    -1.9521 H            1    LIG   0.0000
  49 H            5.2270     6.1707    -2.9627 H            1    LIG   0.0000
  50 H            4.3957     4.7787    -3.1576 H            1    LIG   0.0000
  51 H            4.0510     5.7669    -1.9041 H            1    LIG   0.0000
  52 H            1.1282     3.1089    -0.0017 H            1    LIG   0.0000
  53 H           -0.8608    -0.5412     0.0178 H            1    LIG   0.0000
  54 H            1.2482    -1.6723     0.0039 H            1    LIG   0.0000
  55 H            6.2304    -2.2567     2.4098 H            1    LIG   0.0000
  56 H            8.7819    -2.7938     2.6449 H            1    LIG   0.0000
  57 H            9.3550    -3.5814     1.3342 H            1    LIG   0.0000
  58 H            9.6728    -1.9924     1.5356 H            1    LIG   0.0000
  59 H            9.3442    -4.1221    -0.6634 H            1    LIG   0.0000
@<TRIPOS>BOND
   1        1        2 1
   2        2        3 ar
   3        3        4 ar
   4        4        5 1
   5        4        6 ar
   6        6        7 ar
   7        7        8 1
   8        8        9 1
   9        9       10 2
  10       10       11 1
  11       11       12 2
  12       11       13 am
  13       13       14 1
  14       14       15 1
  15       15       16 1
  16       16       17 1
  17       17       18 2
  18       17       19 am
  19       19       20 1
  20       19       21 1
  21       15       22 1
  22       22       23 ar
  23       23       24 ar
  24       24       25 1
  25       24       26 ar
  26       26       27 ar
  27       27       28 ar
  28       28       22 ar
  29       28       13 1
  30       10       29 1
  31       29       30 2
  32       30        8 1
  33       30       31 1
  34        7       32 ar
  35       32        2 ar
  36       15       33 1
  37        1       34 1
  38        1       35 1
  39        1       36 1
  40        3       37 1
  41        5       38 1
  42        5       39 1
  43        5       40 1
  44        6       41 1
  45       14       42 1
  46       14       43 1
  47       16       44 1
  48       16       45 1
  49       20       46 1
  50       20       47 1
  51       20       48 1
  52       21       49 1
  53       21       50 1
  54       21       51 1
  55       23       52 1
  56       26       53 1
  57       27       54 1
  58       29       55 1
  59       31       56 1
  60       31       57 1
  61       31       58 1
  62       32       59 1

@<TRIPOS>MOLECULE

  59   62
SMALL
USER_CHARGES
@<TRIPOS>ATOM
   1 C1           9.0812    -6.8240     2.9894 C.3          1    LIG   0.0000
   2 C2           9.3546    -5.4135     2.4942 C.ar         1    LIG   0.0000
   3 C3          10.6192    -4.8629     2.6745 C.ar         1    LIG   0.0000
   4 C4          10.8597    -3.5720     2.2166 C.ar         1    LIG   0.0000
   5 C5          12.2346    -2.9529     2.4054 C.3          1    LIG   0.0000
   6 C6           9.8625    -2.8336     1.5880 C.ar         1    LIG   0.0000
   7 C7           8.6068    -3.4081     1.4204 C.ar         1    LIG   0.0000
   8 N8           7.5916    -2.6782     0.7908 N.pl3        1    LIG   0.0000
   9 N9           6.3305    -2.6638     1.1578 N.2          1    LIG   0.0000
  10 C10          5.6612    -1.8785     0.3480 C.2          1    LIG   0.0000
  11 C11          4.2396    -1.6020     0.4224 C.2          1    LIG   0.0000
  12 O12          3.4890    -2.4314     0.8571 O.2          1    LIG   0.0000
  13 N13          3.7430    -0.3680    -0.0126 N.am         1    LIG   0.0000
  14 C14          4.5263     0.7391    -0.5604 C.3          1    LIG   0.0000
  15 C15          3.7872     1.9447    -0.0272 C.3          1    LIG   0.0000
  16 C16          3.9433     3.1529    -0.9367 C.3          1    LIG   0.0000
  17 C17          5.3883     3.6236    -0.9104 C.2          1    LIG   0.0000
  18 O18          6.1949     3.0472    -0.2342 O.2          1    LIG   0.0000
  19 N19          5.7700     4.7059    -1.6586 N.am         1    LIG   0.0000
  20 C20          7.1675     5.1611    -1.6331 C.3          1    LIG   0.0000
  21 C21          4.7819     5.4120    -2.4870 C.3          1    LIG   0.0000
  22 C22          2.3616     1.4239    -0.0087 C.ar         1    LIG   0.0000
  23 C23          1.1516     2.1091    -0.0001 C.ar         1    LIG   0.0000
  24 C24         -0.0229     1.3692     0.0107 C.ar         1    LIG   0.0000
  25 Cl25        -1.5701     2.2470     0.0290 Cl           1    LIG   0.0000
  26 C26         -0.0068    -0.0210     0.0114 C.ar         1    LIG   0.0000
  27 C27          1.2207    -0.6727     0.0031 C.ar         1    LIG   0.0000
  28 C28          2.4128     0.0470    -0.0063 C.ar         1    LIG   0.0000
  29 C29          6.5478    -1.3431    -0.6109 C.2          1    LIG   0.0000
  30 C30          7.7571    -1.8755    -0.2952 C.2          1    LIG   0.0000
  31 C31          9.0640    -1.6166    -1.0278 C.3          1    LIG   0.0000
  32 C32          8.3399    -4.6972     1.8686 C.ar         1    LIG   0.0000
  33 H            4.0932     2.1618     0.8997 H            1    LIG   0.0000
  34 H            9.9083    -7.1954     3.4113 H            1    LIG   0.0000
  35 H            8.3433    -6.8033     3.6641 H            1    LIG   0.0000
  36 H            8.8120    -7.4016     2.2187 H            1    LIG   0.0000
  37 H           11.3425    -5.3860     3.1253 H            1    LIG   0.0000
  38 H           12.8333    -3.6057     2.8695 H            1    LIG   0.0000
  39 H           12.6217    -2.7220     1.5127 H            1    LIG   0.0000
  40 H           12.1537    -2.1235     2.9582 H            1    LIG   0.0000
  41 H           10.0451    -1.9059     1.2623 H            1    LIG   0.0000
  42 H            4.5244     0.7252    -1.5603 H            1    LIG   0.0000
  43 H            5.4693     0.7156    -0.2285 H            1    LIG   0.0000
  44 H            3.6916     2.9013    -1.8713 H            1    LIG   0.0000
  45 H            3.3469     3.8895    -0.6177 H            1    LIG   0.0000
  46 H            7.2701     5.9558    -2.2314 H            1    LIG   0.0000
  47 H            7.4191     5.4127    -0.6986 H            1    LIG   0.0000
  48 H            7.7639     4.4245    -1.9521 H            1    LIG   0.0000
  49 H            5.2270     6.1707    -2.9627 H            1    LIG   0.0000
  50 H            4.3957     4.7787    -3.1576 H            1    LIG   0.0000
  51 H            4.0510     5.7669    -1.9041 H            1    LIG   0.0000
  52 H            1.1282     3.1089    -0.0017 H            1    LIG   0.0000
  53 H           -0.8608    -0.5412     0.0178 H            1    LIG   0.0000
  54 H            1.2482    -1.6723     0.0039 H            1    LIG   0.0000
  55 H            6.3335    -0.7123    -1.3567 H            1    LIG   0.0000
  56 H            8.9009    -0.9884    -1.7885 H            1    LIG   0.0000
  57 H            9.7253    -1.2113    -0.3966 H            1    LIG   0.0000
  58 H            9.4253    -2.4800    -1.3800 H            1    LIG   0.0000
  59 H            7.4342    -5.1021     1.7434 H            1    LIG   0.0000
@<TRIPOS>BOND
   1        1        2 1
   2        2        3 ar
   3        3        4 ar
   4        4        5 1
   5        4        6 ar
   6        6        7 ar
   7        7        8 1
   8        8        9 1
   9        9       10 2
  10       10       11 1
  11       11       12 2
  12       11       13 am
  13       13       14 1
  14       14       15 1
  15       15       16 1
  16       16       17 1
  17       17       18 2
  18       17       19 am
  19       19       20 1
  20       19       21 1
  21       15       22 1
  22       22       23 ar
  23       23       24 ar
  24       24       25 1
  25       24       26 ar
  26       26       27 ar
  27       27       28 ar
  28       28       22 ar
  29       28       13 1
  30       10       29 1
  31       29       30 2
  32       30        8 1
  33       30       31 1
  34        7       32 ar
  35       32        2 ar
  36       15       33 1
  37        1       34 1
  38        1       35 1
  39        1       36 1
  40        3       37 1
  41        5       38 1
  42        5       39 1
  43        5       40 1
  44        6       41 1
  45       14       42 1
  46       14       43 1
  47       16       44 1
  48       16       45 1
  49       20       46 1
  50       20       47 1
  51       20       48 1
  52       21       49 1
  53       21       50 1
  54       21       51 1
  55       23       52 1
  56       26       53 1
  57       27       54 1
  58       29       55 1
  59       31       56 1
  60       31       57 1
  61       31       58 1
  62       32       59 1

@<TRIPOS>MOLECULE

  59   62
SMALL
USER_CHARGES
@<TRIPOS>ATOM
   1 C1          12.0894    -2.8128     2.7890 C.3          1    LIG   0.0000
   2 C2          10.7917    -3.4993     2.3961 C.ar         1    LIG   0.0000
   3 C3          10.6292    -4.8534     2.6694 C.ar         1    LIG   0.0000
   4 C4           9.4375    -5.4720     2.3071 C.ar         1    LIG   0.0000
   5 C5           9.2417    -6.9510     2.5963 C.3          1    LIG   0.0000
   6 C6           8.4184    -4.7612     1.6820 C.ar         1    LIG   0.0000
   7 C7           8.6068    -3.4081     1.4204 C.ar         1    LIG   0.0000
   8 N8           7.5916    -2.6782     0.7908 N.pl3        1    LIG   0.0000
   9 N9           6.3305    -2.6638     1.1578 N.2          1    LIG   0.0000
  10 C10          5.6612    -1.8785     0.3480 C.2          1    LIG   0.0000
  11 C11          4.2396    -1.6020     0.4224 C.2          1    LIG   0.0000
  12 O12          3.4890    -2.4314     0.8571 O.2          1    LIG   0.0000
  13 N13          3.7430    -0.3680    -0.0126 N.am         1    LIG   0.0000
  14 C14          4.5263     0.7391    -0.5604 C.3          1    LIG   0.0000
  15 C15          3.7872     1.9447    -0.0272 C.3          1    LIG   0.0000
  16 C16          3.9433     3.1529    -0.9367 C.3          1    LIG   0.0000
  17 C17          5.3883     3.6236    -0.9104 C.2          1    LIG   0.0000
  18 O18          6.1949     3.0472    -0.2342 O.2          1    LIG   0.0000
  19 N19          5.7700     4.7059    -1.6586 N.am         1    LIG   0.0000
  20 C20          7.1675     5.1611    -1.6331 C.3          1    LIG   0.0000
  21 C21          4.7819     5.4120    -2.4870 C.3          1    LIG   0.0000
  22 C22          2.3616     1.4239    -0.0087 C.ar         1    LIG   0.0000
  23 C23          1.1516     2.1091    -0.0001 C.ar         1    LIG   0.0000
  24 C24         -0.0229     1.3692     0.0107 C.ar         1    LIG   0.0000
  25 Cl25        -1.5701     2.2470     0.0290 Cl           1    LIG   0.0000
  26 C26         -0.0068    -0.0210     0.0114 C.ar         1    LIG   0.0000
  27 C27          1.2207    -0.6727     0.0031 C.ar         1    LIG   0.0000
  28 C28          2.4128     0.0470    -0.0063 C.ar         1    LIG   0.0000
  29 C29          6.5478    -1.3431    -0.6109 C.2          1    LIG   0.0000
  30 C30          7.7571    -1.8755    -0.2952 C.2          1    LIG   0.0000
  31 C31          9.0640    -1.6166    -1.0278 C.3          1    LIG   0.0000
  32 C32          9.7886    -2.7651     1.7725 C.ar         1    LIG   0.0000
  33 H            4.0932     2.1618     0.8997 H            1    LIG   0.0000
  34 H           12.6992    -3.4759     3.2229 H            1    LIG   0.0000
  35 H           12.5297    -2.4397     1.9723 H            1    LIG   0.0000
  36 H           11.8932    -2.0709     3.4302 H            1    LIG   0.0000
  37 H           11.3563    -5.3729     3.1184 H            1    LIG   0.0000
  38 H           10.0585    -7.3139     3.0449 H            1    LIG   0.0000
  39 H            8.4507    -7.0715     3.1961 H            1    LIG   0.0000
  40 H            9.0872    -7.4409     1.7383 H            1    LIG   0.0000
  41 H            7.5651    -5.2150     1.4251 H            1    LIG   0.0000
  42 H            4.5244     0.7252    -1.5603 H            1    LIG   0.0000
  43 H            5.4693     0.7156    -0.2285 H            1    LIG   0.0000
  44 H            3.6916     2.9013    -1.8713 H            1    LIG   0.0000
  45 H            3.3469     3.8895    -0.6177 H            1    LIG   0.0000
  46 H            7.2701     5.9558    -2.2314 H            1    LIG   0.0000
  47 H            7.4191     5.4127    -0.6986 H            1    LIG   0.0000
  48 H            7.7639     4.4245    -1.9521 H            1    LIG   0.0000
  49 H            5.2270     6.1707    -2.9627 H            1    LIG   0.0000
  50 H            4.3957     4.7787    -3.1576 H            1    LIG   0.0000
  51 H            4.0510     5.7669    -1.9041 H            1    LIG   0.0000
  52 H            1.1282     3.1089    -0.0017 H            1    LIG   0.0000
  53 H           -0.8608    -0.5412     0.0178 H            1    LIG   0.0000
  54 H            1.2482    -1.6723     0.0039 H            1    LIG   0.0000
  55 H            6.3335    -0.7123    -1.3567 H            1    LIG   0.0000
  56 H            8.9009    -0.9884    -1.7885 H            1    LIG   0.0000
  57 H            9.7253    -1.2113    -0.3966 H            1    LIG   0.0000
  58 H            9.4253    -2.4800    -1.3800 H            1    LIG   0.0000
  59 H            9.9149    -1.7918     1.5807 H            1    LIG   0.0000
@<TRIPOS>BOND
   1        1        2 1
   2        2        3 ar
   3        3        4 ar
   4        4        5 1
   5        4        6 ar
   6        6        7 ar
   7        7        8 1
   8        8        9 1
   9        9       10 2
  10       10       11 1
  11       11       12 2
  12       11       13 am
  13       13       14 1
  14       14       15 1
  15       15       16 1
  16       16       17 1
  17       17       18 2
  18       17       19 am
  19       19       20 1
  20       19       21 1
  21       15       22 1
  22       22       23 ar
  23       23       24 ar
  24       24       25 1
  25       24       26 ar
  26       26       27 ar
  27       27       28 ar
  28       28       22 ar
  29       28       13 1
  30       10       29 1
  31       29       30 2
  32       30        8 1
  33       30       31 1
  34        7       32 ar
  35       32        2 ar
  36       15       33 1
  37        1       34 1
  38        1       35 1
  39        1       36 1
  40        3       37 1
  41        5       38 1
  42        5       39 1
  43        5       40 1
  44        6       41 1
  45       14       42 1
  46       14       43 1
  47       16       44 1
  48       16       45 1
  49       20       46 1
  50       20       47 1
  51       20       48 1
  52       21       49 1
  53       21       50 1
  54       21       51 1
  55       23       52 1
  56       26       53 1
  57       27       54 1
  58       29       55 1
  59       31       56 1
  60       31       57 1
  61       31       58 1
  62       32       59 1

@<TRIPOS>MOLECULE

  59   62
SMALL
USER_CHARGES
@<TRIPOS>ATOM
   1 C1          12.4038    -0.1355    -0.1690 C.3          1    LIG   0.0000
   2 C2          11.2611    -0.3916     0.7996 C.ar         1    LIG   0.0000
   3 C3          11.4486    -0.1384     2.1545 C.ar         1    LIG   0.0000
   4 C4          10.3962    -0.3748     3.0324 C.ar         1    LIG   0.0000
   5 C5          10.5822    -0.1052     4.5163 C.3          1    LIG   0.0000
   6 C6           9.1731    -0.8559     2.5772 C.ar         1    LIG   0.0000
   7 C7           9.0123    -1.1007     1.2174 C.ar         1    LIG   0.0000
   8 N8           7.7881    -1.5861     0.7427 N.pl3        1    LIG   0.0000
   9 N9           6.6113    -1.0731     1.0205 N.2          1    LIG   0.0000
  10 C10          5.6866    -1.7767     0.4121 C.2          1    LIG   0.0000
  11 C11          4.2592    -1.5279     0.4722 C.2          1    LIG   0.0000
  12 O12          3.5211    -2.3700     0.9037 O.2          1    LIG   0.0000
  13 N13          3.7426    -0.3063     0.0273 N.am         1    LIG   0.0000
  14 C14          4.5355     0.8070    -0.4889 C.3          1    LIG   0.0000
  15 C15          3.7517     1.9928     0.0250 C.3          1    LIG   0.0000
  16 C16          3.8939     3.1298    -0.9740 C.3          1    LIG   0.0000
  17 C17          5.3211     3.6521    -0.9475 C.2          1    LIG   0.0000
  18 O18          6.1264     3.1600    -0.2063 O.2          1    LIG   0.0000
  19 N19          5.6882     4.6845    -1.7699 N.am         1    LIG   0.0000
  20 C20          7.0684     5.1896    -1.7442 C.3          1    LIG   0.0000
  21 C21          4.7017     5.2872    -2.6779 C.3          1    LIG   0.0000
  22 C22          2.3419     1.4469     0.0265 C.ar         1    LIG   0.0000
  23 C23          1.1308     2.1255     0.0286 C.ar         1    LIG   0.0000
  24 C24         -0.0285     1.3639     0.0217 C.ar         1    LIG   0.0000
  25 Cl25        -1.5701     2.2470     0.0290 Cl           1    LIG   0.0000
  26 C26         -0.0079    -0.0255     0.0118 C.ar         1    LIG   0.0000
  27 C27          1.2248    -0.6669     0.0135 C.ar         1    LIG   0.0000
  28 C28          2.4035     0.0724     0.0238 C.ar         1    LIG   0.0000
  29 C29          6.3038    -2.8182    -0.3136 C.2          1    LIG   0.0000
  30 C30          7.6322    -2.6616    -0.0759 C.2          1    LIG   0.0000
  31 C31          8.7462    -3.5355    -0.6299 C.3          1    LIG   0.0000
  32 C32         10.0483    -0.8725     0.3180 C.ar         1    LIG   0.0000
  33 H            4.0462     2.2641     0.9413 H            1    LIG   0.0000
  34 H           13.1977     0.2054     0.3347 H            1    LIG   0.0000
  35 H           12.6445    -0.9877    -0.6334 H            1    LIG   0.0000
  36 H           12.1213     0.5445    -0.8455 H            1    LIG   0.0000
  37 H           12.3243     0.2075     2.4912 H            1    LIG   0.0000
  38 H           11.5085     0.2340     4.6800 H            1    LIG   0.0000
  39 H            9.9184     0.5799     4.8164 H            1    LIG   0.0000
  40 H           10.4419    -0.9522     5.0291 H            1    LIG   0.0000
  41 H            8.4224    -1.0230     3.2164 H            1    LIG   0.0000
  42 H            4.5721     0.7978    -1.4882 H            1    LIG   0.0000
  43 H            5.4653     0.7956    -0.1211 H            1    LIG   0.0000
  44 H            3.6780     2.7962    -1.8917 H            1    LIG   0.0000
  45 H            3.2644     3.8678    -0.7310 H            1    LIG   0.0000
  46 H            7.1620     5.9375    -2.4014 H            1    LIG   0.0000
  47 H            7.2843     5.5232    -0.8265 H            1    LIG   0.0000
  48 H            7.6980     4.4516    -1.9873 H            1    LIG   0.0000
  49 H            5.1349     6.0212    -3.2010 H            1    LIG   0.0000
  50 H            4.3564     4.5895    -3.3055 H            1    LIG   0.0000
  51 H            3.9427     5.6611    -2.1448 H            1    LIG   0.0000
  52 H            1.0955     3.1249     0.0348 H            1    LIG   0.0000
  53 H           -0.8589    -0.5506     0.0037 H            1    LIG   0.0000
  54 H            1.2650    -1.6661     0.0073 H            1    LIG   0.0000
  55 H            5.8617    -3.5159    -0.8772 H            1    LIG   0.0000
  56 H            8.3523    -4.2542    -1.2029 H            1    LIG   0.0000
  57 H            9.3678    -2.9756    -1.1777 H            1    LIG   0.0000
  58 H            9.2510    -3.9514     0.1265 H            1    LIG   0.0000
  59 H            9.9233    -1.0510    -0.6579 H            1    LIG   0.0000
@<TRIPOS>BOND
   1        1        2 1
   2        2        3 ar
   3        3        4 ar
   4        4        5 1
   5        4        6 ar
   6        6        7 ar
   7        7        8 1
   8        8        9 1
   9        9       10 2
  10       10       11 1
  11       11       12 2
  12       11       13 am
  13       13       14 1
  14       14       15 1
  15       15       16 1
  16       16       17 1
  17       17       18 2
  18       17       19 am
  19       19       20 1
  20       19       21 1
  21       15       22 1
  22       22       23 ar
  23       23       24 ar
  24       24       25 1
  25       24       26 ar
  26       26       27 ar
  27       27       28 ar
  28       28       22 ar
  29       28       13 1
  30       10       29 1
  31       29       30 2
  32       30        8 1
  33       30       31 1
  34        7       32 ar
  35       32        2 ar
  36       15       33 1
  37        1       34 1
  38        1       35 1
  39        1       36 1
  40        3       37 1
  41        5       38 1
  42        5       39 1
  43        5       40 1
  44        6       41 1
  45       14       42 1
  46       14       43 1
  47       16       44 1
  48       16       45 1
  49       20       46 1
  50       20       47 1
  51       20       48 1
  52       21       49 1
  53       21       50 1
  54       21       51 1
  55       23       52 1
  56       26       53 1
  57       27       54 1
  58       29       55 1
  59       31       56 1
  60       31       57 1
  61       31       58 1
  62       32       59 1

