@<TRIPOS>MOLECULE
*****
 59 62 0 0 0
SMALL
USER_CHARGES

@<TRIPOS>ATOM
      1 C1          0.5469   -3.0005    6.8830 C.3     1  LIG1        0.0000
      2 C2          0.2730   -3.5198    5.4813 C.3     1  LIG1        0.0000
      3 C3         -0.9103   -4.2065    5.2298 C.3     1  LIG1        0.0000
      4 C4         -1.1522   -4.6765    3.9435 C.3     1  LIG1        0.0000
      5 C5         -2.4388   -5.4299    3.6495 C.3     1  LIG1        0.0000
      6 C6         -0.2357   -4.4707    2.9176 C.3     1  LIG1        0.0000
      7 C7          0.9396   -3.7808    3.1961 C.3     1  LIG1        0.0000
      8 N8          1.8731   -3.5660    2.1753 N.pl3   1  LIG1        0.0000
      9 N9          2.5551   -2.4582    1.9939 N.2     1  LIG1        0.0000
     10 C10         3.3325   -2.6042    0.9477 C.2     1  LIG1        0.0000
     11 C11         4.2396   -1.6020    0.4224 C.2     1  LIG1        0.0000
     12 O12         5.4160   -1.8308    0.3608 O.2     1  LIG1        0.0000
     13 N13         3.7430   -0.3680   -0.0126 N.am    1  LIG1        0.0000
     14 C14         4.5263    0.7391   -0.5604 C.3     1  LIG1        0.0000
     15 C15         3.7872    1.9447   -0.0272 C.3     1  LIG1        0.0000
     16 C16         3.9433    3.1529   -0.9367 C.3     1  LIG1        0.0000
     17 C17         5.3883    3.6236   -0.9104 C.2     1  LIG1        0.0000
     18 O18         6.1949    3.0472   -0.2342 O.2     1  LIG1        0.0000
     19 N19         5.7700    4.7059   -1.6586 N.am    1  LIG1        0.0000
     20 C20         7.1675    5.1611   -1.6331 C.3     1  LIG1        0.0000
     21 C21         4.7819    5.4120   -2.4870 C.3     1  LIG1        0.0000
     22 C22         2.3616    1.4239   -0.0087 C.3     1  LIG1        0.0000
     23 C23         1.1516    2.1091   -0.0001 C.3     1  LIG1        0.0000
     24 C24        -0.0229    1.3692    0.0107 C.3     1  LIG1        0.0000
     25 Cl25       -1.5701    2.2470    0.0290 Cl      1  LIG1        0.0000
     26 C26        -0.0068   -0.0210    0.0114 C.3     1  LIG1        0.0000
     27 C27         1.2207   -0.6727    0.0031 C.3     1  LIG1        0.0000
     28 C28         2.4128    0.0470   -0.0063 C.3     1  LIG1        0.0000
     29 C29         3.1456   -3.8968    0.4123 C.2     1  LIG1        0.0000
     30 C30         2.2140   -4.4704    1.2177 C.2     1  LIG1        0.0000
     31 C31         1.6540   -5.8764    1.0725 C.3     1  LIG1        0.0000
     32 C32         1.2059   -3.3000    4.4737 C.3     1  LIG1        0.0000
     33 H           4.0932    2.1618    0.8997 H       1  LIG1        0.0000
     34 H          -0.2165   -3.2407    7.4826 H       1  LIG1        0.0000
     35 H           1.3880   -3.4131    7.2328 H       1  LIG1        0.0000
     36 H           0.6495   -2.0062    6.8560 H       1  LIG1        0.0000
     37 H          -1.5752   -4.3594    5.9610 H       1  LIG1        0.0000
     38 H          -2.9860   -5.4933    4.4841 H       1  LIG1        0.0000
     39 H          -2.9575   -4.9424    2.9471 H       1  LIG1        0.0000
     40 H          -2.2196   -6.3496    3.3239 H       1  LIG1        0.0000
     41 H          -0.4186   -4.8126    1.9958 H       1  LIG1        0.0000
     42 H           4.5244    0.7252   -1.5603 H       1  LIG1        0.0000
     43 H           5.4693    0.7156   -0.2285 H       1  LIG1        0.0000
     44 H           3.6916    2.9013   -1.8713 H       1  LIG1        0.0000
     45 H           3.3469    3.8895   -0.6177 H       1  LIG1        0.0000
     46 H           7.2701    5.9558   -2.2314 H       1  LIG1        0.0000
     47 H           7.4191    5.4127   -0.6986 H       1  LIG1        0.0000
     48 H           7.7639    4.4245   -1.9521 H       1  LIG1        0.0000
     49 H           5.2270    6.1707   -2.9627 H       1  LIG1        0.0000
     50 H           4.3957    4.7787   -3.1576 H       1  LIG1        0.0000
     51 H           4.0510    5.7669   -1.9041 H       1  LIG1        0.0000
     52 H           1.1282    3.1089   -0.0017 H       1  LIG1        0.0000
     53 H          -0.8608   -0.5412    0.0178 H       1  LIG1        0.0000
     54 H           1.2482   -1.6723    0.0039 H       1  LIG1        0.0000
     55 H           3.5982   -4.3005   -0.3828 H       1  LIG1        0.0000
     56 H           2.0771   -6.3241    0.2848 H       1  LIG1        0.0000
     57 H           1.8521   -6.4012    1.9004 H       1  LIG1        0.0000
     58 H           0.6644   -5.8287    0.9370 H       1  LIG1        0.0000
     59 H           2.0535   -2.8048    4.6644 H       1  LIG1        0.0000
@<TRIPOS>BOND
     1     1     2    1
     2     2     3   ar
     3     3     4   ar
     4     4     5    1
     5     4     6   ar
     6     6     7   ar
     7     7     8    1
     8     8     9    1
     9     9    10    2
    10    10    11    1
    11    11    12    2
    12    11    13   am
    13    13    14    1
    14    14    15    1
    15    15    16    1
    16    16    17    1
    17    17    18    2
    18    17    19   am
    19    19    20    1
    20    19    21    1
    21    15    22    1
    22    22    23   ar
    23    23    24   ar
    24    24    25    1
    25    24    26   ar
    26    26    27   ar
    27    27    28   ar
    28    28    22   ar
    29    28    13    1
    30    10    29    1
    31    29    30    2
    32    30     8    1
    33    30    31    1
    34     7    32   ar
    35    32     2   ar
    36    15    33    1
    37     1    34    1
    38     1    35    1
    39     1    36    1
    40     3    37    1
    41     5    38    1
    42     5    39    1
    43     5    40    1
    44     6    41    1
    45    14    42    1
    46    14    43    1
    47    16    44    1
    48    16    45    1
    49    20    46    1
    50    20    47    1
    51    20    48    1
    52    21    49    1
    53    21    50    1
    54    21    51    1
    55    23    52    1
    56    26    53    1
    57    27    54    1
    58    29    55    1
    59    31    56    1
    60    31    57    1
    61    31    58    1
    62    32    59    1
