@<TRIPOS>MOLECULE
*****
 59 62 0 0 0
SMALL
USER_CHARGES

@<TRIPOS>ATOM
      1 C1         11.5502   -4.5442    2.1827 C.3     1  LIG1        0.0000
      2 C2         10.6272   -3.3369    2.1895 C.3     1  LIG1        0.0000
      3 C3         10.8566   -2.3108    3.1001 C.3     1  LIG1        0.0000
      4 C4         10.0070   -1.2097    3.0972 C.3     1  LIG1        0.0000
      5 C5         10.2409   -0.0791    4.0853 C.3     1  LIG1        0.0000
      6 C6          8.9431   -1.1236    2.2054 C.3     1  LIG1        0.0000
      7 C7          8.7362   -2.1637    1.3052 C.3     1  LIG1        0.0000
      8 N8          7.6693   -2.0933    0.4016 N.pl3   1  LIG1        0.0000
      9 N9          6.4252   -1.8170    0.7192 N.2     1  LIG1        0.0000
     10 C10         5.6940   -1.8373   -0.3695 C.2     1  LIG1        0.0000
     11 C11         4.2676   -1.5839   -0.4344 C.2     1  LIG1        0.0000
     12 O12         3.5261   -2.4306   -0.8505 O.2     1  LIG1        0.0000
     13 N13         3.7576   -0.3558   -0.0130 N.am    1  LIG1        0.0000
     14 C14         4.5531    0.7510    0.5057 C.3     1  LIG1        0.0000
     15 C15         3.7896    1.9437   -0.0276 C.3     1  LIG1        0.0000
     16 C16         4.2534    2.2883   -1.4337 C.3     1  LIG1        0.0000
     17 C17         5.6775    2.8170   -1.3822 C.2     1  LIG1        0.0000
     18 O18         6.2477    2.9036   -0.3299 O.2     1  LIG1        0.0000
     19 N19         6.3102    3.1946   -2.5372 N.am    1  LIG1        0.0000
     20 C20         7.6875    3.7058   -2.4874 C.3     1  LIG1        0.0000
     21 C21         5.6118    3.0885   -3.8263 C.3     1  LIG1        0.0000
     22 C22         2.3761    1.4111   -0.0130 C.3     1  LIG1        0.0000
     23 C23         1.1649    2.0958    0.0008 C.3     1  LIG1        0.0000
     24 C24        -0.0222    1.3711    0.0105 C.3     1  LIG1        0.0000
     25 Cl25       -1.5710    2.2480    0.0282 Cl      1  LIG1        0.0000
     26 C26         0.0001   -0.0204    0.0066 C.3     1  LIG1        0.0000
     27 C27         1.2251   -0.6794   -0.0055 C.3     1  LIG1        0.0000
     28 C28         2.4206    0.0327   -0.0147 C.3     1  LIG1        0.0000
     29 C29         6.5192   -2.1459   -1.4723 C.2     1  LIG1        0.0000
     30 C30         7.7594   -2.3012   -0.9400 C.2     1  LIG1        0.0000
     31 C31         9.0239   -2.6453   -1.7109 C.3     1  LIG1        0.0000
     32 C32         9.5711   -3.2758    1.2867 C.3     1  LIG1        0.0000
     33 H           3.8822    2.7303    0.5828 H       1  LIG1        0.0000
     34 H          12.2510   -4.4319    2.8872 H       1  LIG1        0.0000
     35 H          11.0193   -5.3708    2.3695 H       1  LIG1        0.0000
     36 H          11.9877   -4.6243    1.2871 H       1  LIG1        0.0000
     37 H          11.6189   -2.3638    3.7452 H       1  LIG1        0.0000
     38 H          11.0374   -0.2908    4.6517 H       1  LIG1        0.0000
     39 H          10.4037    0.7718    3.5858 H       1  LIG1        0.0000
     40 H           9.4354    0.0257    4.6687 H       1  LIG1        0.0000
     41 H           8.3375   -0.3278    2.2112 H       1  LIG1        0.0000
     42 H           5.4879    0.7270    0.1514 H       1  LIG1        0.0000
     43 H           4.5754    0.7484    1.5055 H       1  LIG1        0.0000
     44 H           4.2227    1.4683   -2.0052 H       1  LIG1        0.0000
     45 H           3.6522    2.9872   -1.8211 H       1  LIG1        0.0000
     46 H           7.9926    3.9325   -3.4124 H       1  LIG1        0.0000
     47 H           7.7182    4.5259   -1.9159 H       1  LIG1        0.0000
     48 H           8.2887    3.0069   -2.1000 H       1  LIG1        0.0000
     49 H           6.2148    3.4038   -4.5591 H       1  LIG1        0.0000
     50 H           5.3579    2.1353   -3.9904 H       1  LIG1        0.0000
     51 H           4.7874    3.6542   -3.8063 H       1  LIG1        0.0000
     52 H           1.1482    3.0956    0.0038 H       1  LIG1        0.0000
     53 H          -0.8541   -0.5403    0.0124 H       1  LIG1        0.0000
     54 H           1.2470   -1.6792   -0.0076 H       1  LIG1        0.0000
     55 H           6.2507   -2.2313   -2.4318 H       1  LIG1        0.0000
     56 H           8.8060   -2.7433   -2.6819 H       1  LIG1        0.0000
     57 H           9.6960   -1.9143   -1.5922 H       1  LIG1        0.0000
     58 H           9.4014   -3.5045   -1.3656 H       1  LIG1        0.0000
     59 H           9.4147   -4.0185    0.6357 H       1  LIG1        0.0000
@<TRIPOS>BOND
     1     1     2    1
     2     2     3   ar
     3     3     4   ar
     4     4     5    1
     5     4     6   ar
     6     6     7   ar
     7     7     8    1
     8     8     9    1
     9     9    10    2
    10    10    11    1
    11    11    12    2
    12    11    13   am
    13    13    14    1
    14    14    15    1
    15    15    16    1
    16    16    17    1
    17    17    18    2
    18    17    19   am
    19    19    20    1
    20    19    21    1
    21    15    22    1
    22    22    23   ar
    23    23    24   ar
    24    24    25    1
    25    24    26   ar
    26    26    27   ar
    27    27    28   ar
    28    28    22   ar
    29    28    13    1
    30    10    29    1
    31    29    30    2
    32    30     8    1
    33    30    31    1
    34     7    32   ar
    35    32     2   ar
    36    15    33    1
    37     1    34    1
    38     1    35    1
    39     1    36    1
    40     3    37    1
    41     5    38    1
    42     5    39    1
    43     5    40    1
    44     6    41    1
    45    14    42    1
    46    14    43    1
    47    16    44    1
    48    16    45    1
    49    20    46    1
    50    20    47    1
    51    20    48    1
    52    21    49    1
    53    21    50    1
    54    21    51    1
    55    23    52    1
    56    26    53    1
    57    27    54    1
    58    29    55    1
    59    31    56    1
    60    31    57    1
    61    31    58    1
    62    32    59    1
