@<TRIPOS>MOLECULE
*****
 59 62 0 0 0
SMALL
USER_CHARGES

@<TRIPOS>ATOM
      1 C1         11.4617   -4.6916   -2.2198 C.3     1  LIG1        0.0000
      2 C2         10.5546   -3.4723   -2.2324 C.3     1  LIG1        0.0000
      3 C3         10.7897   -2.4595   -3.1565 C.3     1  LIG1        0.0000
      4 C4          9.9531   -1.3486   -3.1606 C.3     1  LIG1        0.0000
      5 C5         10.1947   -0.2313   -4.1620 C.3     1  LIG1        0.0000
      6 C6          8.8967   -1.2394   -2.2624 C.3     1  LIG1        0.0000
      7 C7          8.6838   -2.2666   -1.3489 C.3     1  LIG1        0.0000
      8 N8          7.6258   -2.1720   -0.4372 N.pl3   1  LIG1        0.0000
      9 N9          6.3823   -1.8845   -0.7476 N.2     1  LIG1        0.0000
     10 C10         5.6612   -1.8785    0.3480 C.2     1  LIG1        0.0000
     11 C11         4.2396   -1.6020    0.4224 C.2     1  LIG1        0.0000
     12 O12         3.4890   -2.4314    0.8571 O.2     1  LIG1        0.0000
     13 N13         3.7430   -0.3680   -0.0126 N.am    1  LIG1        0.0000
     14 C14         4.5263    0.7391   -0.5604 C.3     1  LIG1        0.0000
     15 C15         3.7872    1.9447   -0.0272 C.3     1  LIG1        0.0000
     16 C16         3.9433    3.1529   -0.9367 C.3     1  LIG1        0.0000
     17 C17         5.3883    3.6236   -0.9104 C.2     1  LIG1        0.0000
     18 O18         6.1949    3.0472   -0.2342 O.2     1  LIG1        0.0000
     19 N19         5.7700    4.7059   -1.6586 N.am    1  LIG1        0.0000
     20 C20         7.1675    5.1611   -1.6331 C.3     1  LIG1        0.0000
     21 C21         4.7819    5.4120   -2.4870 C.3     1  LIG1        0.0000
     22 C22         2.3616    1.4239   -0.0087 C.3     1  LIG1        0.0000
     23 C23         1.1516    2.1091   -0.0001 C.3     1  LIG1        0.0000
     24 C24        -0.0229    1.3692    0.0107 C.3     1  LIG1        0.0000
     25 Cl25       -1.5701    2.2470    0.0290 Cl      1  LIG1        0.0000
     26 C26        -0.0068   -0.0210    0.0114 C.3     1  LIG1        0.0000
     27 C27         1.2207   -0.6727    0.0031 C.3     1  LIG1        0.0000
     28 C28         2.4128    0.0470   -0.0063 C.3     1  LIG1        0.0000
     29 C29         6.4918   -2.1854    1.4472 C.2     1  LIG1        0.0000
     30 C30         7.7254   -2.3622    0.9064 C.2     1  LIG1        0.0000
     31 C31         8.9922   -2.7124    1.6706 C.3     1  LIG1        0.0000
     32 C32         9.5053   -3.3885   -1.3236 C.3     1  LIG1        0.0000
     33 H           4.0932    2.1618    0.8997 H       1  LIG1        0.0000
     34 H          12.1593   -4.5953   -2.9298 H       1  LIG1        0.0000
     35 H          11.9040   -4.7688   -1.3263 H       1  LIG1        0.0000
     36 H          10.9188   -5.5128   -2.3951 H       1  LIG1        0.0000
     37 H          11.5467   -2.5290   -3.8061 H       1  LIG1        0.0000
     38 H          10.9844   -0.4591   -4.7316 H       1  LIG1        0.0000
     39 H           9.3866   -0.1219   -4.7408 H       1  LIG1        0.0000
     40 H          10.3720    0.6225   -3.6724 H       1  LIG1        0.0000
     41 H           8.3007   -0.4365   -2.2732 H       1  LIG1        0.0000
     42 H           4.5244    0.7252   -1.5603 H       1  LIG1        0.0000
     43 H           5.4693    0.7156   -0.2285 H       1  LIG1        0.0000
     44 H           3.6916    2.9013   -1.8713 H       1  LIG1        0.0000
     45 H           3.3469    3.8895   -0.6177 H       1  LIG1        0.0000
     46 H           7.2701    5.9558   -2.2314 H       1  LIG1        0.0000
     47 H           7.4191    5.4127   -0.6986 H       1  LIG1        0.0000
     48 H           7.7639    4.4245   -1.9521 H       1  LIG1        0.0000
     49 H           5.2270    6.1707   -2.9627 H       1  LIG1        0.0000
     50 H           4.3957    4.7787   -3.1576 H       1  LIG1        0.0000
     51 H           4.0510    5.7669   -1.9041 H       1  LIG1        0.0000
     52 H           1.1282    3.1089   -0.0017 H       1  LIG1        0.0000
     53 H          -0.8608   -0.5412    0.0178 H       1  LIG1        0.0000
     54 H           1.2482   -1.6723    0.0039 H       1  LIG1        0.0000
     55 H           6.2304   -2.2567    2.4098 H       1  LIG1        0.0000
     56 H           8.7819   -2.7938    2.6449 H       1  LIG1        0.0000
     57 H           9.3550   -3.5814    1.3342 H       1  LIG1        0.0000
     58 H           9.6728   -1.9924    1.5356 H       1  LIG1        0.0000
     59 H           9.3442   -4.1221   -0.6634 H       1  LIG1        0.0000
@<TRIPOS>BOND
     1     1     2    1
     2     2     3   ar
     3     3     4   ar
     4     4     5    1
     5     4     6   ar
     6     6     7   ar
     7     7     8    1
     8     8     9    1
     9     9    10    2
    10    10    11    1
    11    11    12    2
    12    11    13   am
    13    13    14    1
    14    14    15    1
    15    15    16    1
    16    16    17    1
    17    17    18    2
    18    17    19   am
    19    19    20    1
    20    19    21    1
    21    15    22    1
    22    22    23   ar
    23    23    24   ar
    24    24    25    1
    25    24    26   ar
    26    26    27   ar
    27    27    28   ar
    28    28    22   ar
    29    28    13    1
    30    10    29    1
    31    29    30    2
    32    30     8    1
    33    30    31    1
    34     7    32   ar
    35    32     2   ar
    36    15    33    1
    37     1    34    1
    38     1    35    1
    39     1    36    1
    40     3    37    1
    41     5    38    1
    42     5    39    1
    43     5    40    1
    44     6    41    1
    45    14    42    1
    46    14    43    1
    47    16    44    1
    48    16    45    1
    49    20    46    1
    50    20    47    1
    51    20    48    1
    52    21    49    1
    53    21    50    1
    54    21    51    1
    55    23    52    1
    56    26    53    1
    57    27    54    1
    58    29    55    1
    59    31    56    1
    60    31    57    1
    61    31    58    1
    62    32    59    1
