@<TRIPOS>MOLECULE
*****
 59 62 0 0 0
SMALL
USER_CHARGES

@<TRIPOS>ATOM
      1 C1         12.4038   -0.1355   -0.1690 C.3     1  LIG1        0.0000
      2 C2         11.2611   -0.3916    0.7996 C.3     1  LIG1        0.0000
      3 C3         11.4486   -0.1384    2.1545 C.3     1  LIG1        0.0000
      4 C4         10.3962   -0.3748    3.0324 C.3     1  LIG1        0.0000
      5 C5         10.5822   -0.1052    4.5163 C.3     1  LIG1        0.0000
      6 C6          9.1731   -0.8559    2.5772 C.3     1  LIG1        0.0000
      7 C7          9.0123   -1.1007    1.2174 C.3     1  LIG1        0.0000
      8 N8          7.7881   -1.5861    0.7427 N.pl3   1  LIG1        0.0000
      9 N9          6.6113   -1.0731    1.0205 N.2     1  LIG1        0.0000
     10 C10         5.6866   -1.7767    0.4121 C.2     1  LIG1        0.0000
     11 C11         4.2592   -1.5279    0.4722 C.2     1  LIG1        0.0000
     12 O12         3.5211   -2.3700    0.9037 O.2     1  LIG1        0.0000
     13 N13         3.7426   -0.3063    0.0273 N.am    1  LIG1        0.0000
     14 C14         4.5355    0.8070   -0.4889 C.3     1  LIG1        0.0000
     15 C15         3.7517    1.9928    0.0250 C.3     1  LIG1        0.0000
     16 C16         3.8939    3.1298   -0.9740 C.3     1  LIG1        0.0000
     17 C17         5.3211    3.6521   -0.9475 C.2     1  LIG1        0.0000
     18 O18         6.1264    3.1600   -0.2063 O.2     1  LIG1        0.0000
     19 N19         5.6882    4.6845   -1.7699 N.am    1  LIG1        0.0000
     20 C20         7.0684    5.1896   -1.7442 C.3     1  LIG1        0.0000
     21 C21         4.7017    5.2872   -2.6779 C.3     1  LIG1        0.0000
     22 C22         2.3419    1.4469    0.0265 C.3     1  LIG1        0.0000
     23 C23         1.1308    2.1255    0.0286 C.3     1  LIG1        0.0000
     24 C24        -0.0285    1.3639    0.0217 C.3     1  LIG1        0.0000
     25 Cl25       -1.5701    2.2470    0.0290 Cl      1  LIG1        0.0000
     26 C26        -0.0079   -0.0255    0.0118 C.3     1  LIG1        0.0000
     27 C27         1.2248   -0.6669    0.0135 C.3     1  LIG1        0.0000
     28 C28         2.4035    0.0724    0.0238 C.3     1  LIG1        0.0000
     29 C29         6.3038   -2.8182   -0.3136 C.2     1  LIG1        0.0000
     30 C30         7.6322   -2.6616   -0.0759 C.2     1  LIG1        0.0000
     31 C31         8.7462   -3.5355   -0.6299 C.3     1  LIG1        0.0000
     32 C32        10.0483   -0.8725    0.3180 C.3     1  LIG1        0.0000
     33 H           4.0462    2.2641    0.9413 H       1  LIG1        0.0000
     34 H          13.1977    0.2054    0.3347 H       1  LIG1        0.0000
     35 H          12.6445   -0.9877   -0.6334 H       1  LIG1        0.0000
     36 H          12.1213    0.5445   -0.8455 H       1  LIG1        0.0000
     37 H          12.3243    0.2075    2.4912 H       1  LIG1        0.0000
     38 H          11.5085    0.2340    4.6800 H       1  LIG1        0.0000
     39 H           9.9184    0.5799    4.8164 H       1  LIG1        0.0000
     40 H          10.4419   -0.9522    5.0291 H       1  LIG1        0.0000
     41 H           8.4224   -1.0230    3.2164 H       1  LIG1        0.0000
     42 H           4.5721    0.7978   -1.4882 H       1  LIG1        0.0000
     43 H           5.4653    0.7956   -0.1211 H       1  LIG1        0.0000
     44 H           3.6780    2.7962   -1.8917 H       1  LIG1        0.0000
     45 H           3.2644    3.8678   -0.7310 H       1  LIG1        0.0000
     46 H           7.1620    5.9375   -2.4014 H       1  LIG1        0.0000
     47 H           7.2843    5.5232   -0.8265 H       1  LIG1        0.0000
     48 H           7.6980    4.4516   -1.9873 H       1  LIG1        0.0000
     49 H           5.1349    6.0212   -3.2010 H       1  LIG1        0.0000
     50 H           4.3564    4.5895   -3.3055 H       1  LIG1        0.0000
     51 H           3.9427    5.6611   -2.1448 H       1  LIG1        0.0000
     52 H           1.0955    3.1249    0.0348 H       1  LIG1        0.0000
     53 H          -0.8589   -0.5506    0.0037 H       1  LIG1        0.0000
     54 H           1.2650   -1.6661    0.0073 H       1  LIG1        0.0000
     55 H           5.8617   -3.5159   -0.8772 H       1  LIG1        0.0000
     56 H           8.3523   -4.2542   -1.2029 H       1  LIG1        0.0000
     57 H           9.3678   -2.9756   -1.1777 H       1  LIG1        0.0000
     58 H           9.2510   -3.9514    0.1265 H       1  LIG1        0.0000
     59 H           9.9233   -1.0510   -0.6579 H       1  LIG1        0.0000
@<TRIPOS>BOND
     1     1     2    1
     2     2     3   ar
     3     3     4   ar
     4     4     5    1
     5     4     6   ar
     6     6     7   ar
     7     7     8    1
     8     8     9    1
     9     9    10    2
    10    10    11    1
    11    11    12    2
    12    11    13   am
    13    13    14    1
    14    14    15    1
    15    15    16    1
    16    16    17    1
    17    17    18    2
    18    17    19   am
    19    19    20    1
    20    19    21    1
    21    15    22    1
    22    22    23   ar
    23    23    24   ar
    24    24    25    1
    25    24    26   ar
    26    26    27   ar
    27    27    28   ar
    28    28    22   ar
    29    28    13    1
    30    10    29    1
    31    29    30    2
    32    30     8    1
    33    30    31    1
    34     7    32   ar
    35    32     2   ar
    36    15    33    1
    37     1    34    1
    38     1    35    1
    39     1    36    1
    40     3    37    1
    41     5    38    1
    42     5    39    1
    43     5    40    1
    44     6    41    1
    45    14    42    1
    46    14    43    1
    47    16    44    1
    48    16    45    1
    49    20    46    1
    50    20    47    1
    51    20    48    1
    52    21    49    1
    53    21    50    1
    54    21    51    1
    55    23    52    1
    56    26    53    1
    57    27    54    1
    58    29    55    1
    59    31    56    1
    60    31    57    1
    61    31    58    1
    62    32    59    1
