@<TRIPOS>MOLECULE

  25   27
SMALL
USER_CHARGES
@<TRIPOS>ATOM
   1 C1           3.7760     0.5095     0.0008 C.3          1    LIG   0.0000
   2 C2           2.2579     0.6199    -0.0065 C.2          1    LIG   0.0000
   3 N3           1.3761    -0.3528     0.0004 N.2          1    LIG   0.0000
   4 C4           0.0678     0.0408     0.0054 C.2          1    LIG   0.0000
   5 C5          -1.0669    -0.8619     0.0181 C.2          1    LIG   0.0000
   6 N6          -1.0021    -2.1698     0.0177 N.2          1    LIG   0.0000
   7 C7          -2.2981    -2.5857     0.0330 C.2          1    LIG   0.0000
   8 C8          -2.7467    -3.9642     0.0398 C.2          1    LIG   0.0000
   9 C9          -4.0435    -4.3905     0.0590 C.2          1    LIG   0.0000
  10 O10         -4.0112    -5.7034     0.0548 O.2          1    LIG   0.0000
  11 C11         -2.7502    -6.1098     0.0458 C.2          1    LIG   0.0000
  12 N12         -1.9479    -5.0661     0.0323 N.2          1    LIG   0.0000
  13 N13         -3.0676    -1.5294     0.0402 N.2          1    LIG   0.0000
  14 O14         -2.3285    -0.5051     0.0317 O.2          1    LIG   0.0000
  15 C15         -0.1511     1.3809     0.0074 C.2          1    LIG   0.0000
  16 C16         -1.4893     2.1065     0.0137 C.3          1    LIG   0.0000
  17 S17          1.3982     2.0893    -0.0026 S.3          1    LIG   0.0000
  18 H            4.0401    -0.4550    -0.0034 H            1    LIG   0.0000
  19 H            4.1469     0.9601    -0.8112 H            1    LIG   0.0000
  20 H            4.1384     0.9507     0.8218 H            1    LIG   0.0000
  21 H           -4.8605    -3.8142     0.0734 H            1    LIG   0.0000
  22 H           -2.4528    -7.0646     0.0489 H            1    LIG   0.0000
  23 H           -2.2317     1.4365     0.0190 H            1    LIG   0.0000
  24 H           -1.5531     2.6811     0.8296 H            1    LIG   0.0000
  25 H           -1.5623     2.6783    -0.8034 H            1    LIG   0.0000
@<TRIPOS>BOND
   1        1        2 1
   2        2        3 2
   3        3        4 1
   4        4        5 1
   5        5        6 2
   6        6        7 1
   7        7        8 1
   8        8        9 2
   9        9       10 1
  10       10       11 1
  11       11       12 2
  12       12        8 1
  13        7       13 2
  14       13       14 1
  15       14        5 1
  16        4       15 2
  17       15       16 1
  18       15       17 1
  19       17        2 1
  20        1       18 1
  21        1       19 1
  22        1       20 1
  23        9       21 1
  24       11       22 1
  25       16       23 1
  26       16       24 1
  27       16       25 1

@<TRIPOS>MOLECULE

  25   27
SMALL
USER_CHARGES
@<TRIPOS>ATOM
   1 C1           3.7760     0.5095     0.0008 C.3          1    LIG   0.0000
   2 C2           2.2579     0.6199    -0.0065 C.2          1    LIG   0.0000
   3 N3           1.3761    -0.3528     0.0004 N.2          1    LIG   0.0000
   4 C4           0.0678     0.0408     0.0054 C.2          1    LIG   0.0000
   5 C5          -1.0669    -0.8619     0.0181 C.2          1    LIG   0.0000
   6 N6          -1.0021    -2.1698     0.0177 N.2          1    LIG   0.0000
   7 C7          -2.2981    -2.5857     0.0330 C.2          1    LIG   0.0000
   8 C8          -2.7467    -3.9642     0.0398 C.2          1    LIG   0.0000
   9 C9          -1.9491    -5.0722     0.0282 C.2          1    LIG   0.0000
  10 O10         -2.7478    -6.1146     0.0441 O.2          1    LIG   0.0000
  11 C11         -4.0065    -5.7010     0.0530 C.2          1    LIG   0.0000
  12 N12         -4.0409    -4.3849     0.0548 N.2          1    LIG   0.0000
  13 N13         -3.0676    -1.5294     0.0402 N.2          1    LIG   0.0000
  14 O14         -2.3285    -0.5051     0.0317 O.2          1    LIG   0.0000
  15 C15         -0.1511     1.3809     0.0074 C.2          1    LIG   0.0000
  16 C16         -1.4893     2.1065     0.0137 C.3          1    LIG   0.0000
  17 S17          1.3982     2.0893    -0.0026 S.3          1    LIG   0.0000
  18 H            4.0401    -0.4550    -0.0034 H            1    LIG   0.0000
  19 H            4.1469     0.9601    -0.8112 H            1    LIG   0.0000
  20 H            4.1384     0.9507     0.8218 H            1    LIG   0.0000
  21 H           -0.9494    -5.0872     0.0110 H            1    LIG   0.0000
  22 H           -4.8087    -6.2979     0.0577 H            1    LIG   0.0000
  23 H           -2.2317     1.4365     0.0190 H            1    LIG   0.0000
  24 H           -1.5531     2.6811     0.8296 H            1    LIG   0.0000
  25 H           -1.5623     2.6783    -0.8034 H            1    LIG   0.0000
@<TRIPOS>BOND
   1        1        2 1
   2        2        3 2
   3        3        4 1
   4        4        5 1
   5        5        6 2
   6        6        7 1
   7        7        8 1
   8        8        9 2
   9        9       10 1
  10       10       11 1
  11       11       12 2
  12       12        8 1
  13        7       13 2
  14       13       14 1
  15       14        5 1
  16        4       15 2
  17       15       16 1
  18       15       17 1
  19       17        2 1
  20        1       18 1
  21        1       19 1
  22        1       20 1
  23        9       21 1
  24       11       22 1
  25       16       23 1
  26       16       24 1
  27       16       25 1

@<TRIPOS>MOLECULE

  25   27
SMALL
USER_CHARGES
@<TRIPOS>ATOM
   1 C1           3.7760     0.5095     0.0008 C.3          1    LIG   0.0000
   2 C2           2.2579     0.6199    -0.0065 C.2          1    LIG   0.0000
   3 N3           1.3761    -0.3528     0.0004 N.2          1    LIG   0.0000
   4 C4           0.0678     0.0408     0.0054 C.2          1    LIG   0.0000
   5 C5          -1.0669    -0.8619     0.0181 C.2          1    LIG   0.0000
   6 N6          -2.3267    -0.5044     0.0318 N.2          1    LIG   0.0000
   7 C7          -3.0235    -1.6736     0.0388 C.2          1    LIG   0.0000
   8 C8          -4.4676    -1.8006     0.0531 C.2          1    LIG   0.0000
   9 C9          -5.1748    -2.9684     0.0563 C.2          1    LIG   0.0000
  10 O10         -6.4466    -2.6415     0.0743 O.2          1    LIG   0.0000
  11 C11         -6.5588    -1.3213     0.0704 C.2          1    LIG   0.0000
  12 N12         -5.3614    -0.7743     0.0616 N.2          1    LIG   0.0000
  13 N13         -2.1675    -2.6612     0.0306 N.2          1    LIG   0.0000
  14 O14         -1.0032    -2.1714     0.0178 O.2          1    LIG   0.0000
  15 C15         -0.1511     1.3809     0.0074 C.2          1    LIG   0.0000
  16 C16         -1.4893     2.1065     0.0137 C.3          1    LIG   0.0000
  17 S17          1.3982     2.0893    -0.0026 S.3          1    LIG   0.0000
  18 H            4.0401    -0.4550    -0.0034 H            1    LIG   0.0000
  19 H            4.1469     0.9601    -0.8112 H            1    LIG   0.0000
  20 H            4.1384     0.9507     0.8218 H            1    LIG   0.0000
  21 H           -4.7971    -3.8943     0.0468 H            1    LIG   0.0000
  22 H           -7.4223    -0.8168     0.0737 H            1    LIG   0.0000
  23 H           -2.2317     1.4365     0.0190 H            1    LIG   0.0000
  24 H           -1.5531     2.6811     0.8296 H            1    LIG   0.0000
  25 H           -1.5623     2.6783    -0.8034 H            1    LIG   0.0000
@<TRIPOS>BOND
   1        1        2 1
   2        2        3 2
   3        3        4 1
   4        4        5 1
   5        5        6 2
   6        6        7 1
   7        7        8 1
   8        8        9 2
   9        9       10 1
  10       10       11 1
  11       11       12 2
  12       12        8 1
  13        7       13 2
  14       13       14 1
  15       14        5 1
  16        4       15 2
  17       15       16 1
  18       15       17 1
  19       17        2 1
  20        1       18 1
  21        1       19 1
  22        1       20 1
  23        9       21 1
  24       11       22 1
  25       16       23 1
  26       16       24 1
  27       16       25 1

@<TRIPOS>MOLECULE

  25   27
SMALL
USER_CHARGES
@<TRIPOS>ATOM
   1 C1           3.7760     0.5095     0.0008 C.3          1    LIG   0.0000
   2 C2           2.2579     0.6199    -0.0065 C.2          1    LIG   0.0000
   3 N3           1.3761    -0.3528     0.0004 N.2          1    LIG   0.0000
   4 C4           0.0678     0.0408     0.0054 C.2          1    LIG   0.0000
   5 C5          -1.0669    -0.8619     0.0181 C.2          1    LIG   0.0000
   6 N6          -2.3267    -0.5044     0.0318 N.2          1    LIG   0.0000
   7 C7          -3.0235    -1.6736     0.0388 C.2          1    LIG   0.0000
   8 C8          -4.4676    -1.8006     0.0531 C.2          1    LIG   0.0000
   9 C9          -5.3676    -0.7741     0.0658 C.2          1    LIG   0.0000
  10 O10         -6.5630    -1.3179     0.0722 O.2          1    LIG   0.0000
  11 C11         -6.4431    -2.6374     0.0760 C.2          1    LIG   0.0000
  12 N12         -5.1686    -2.9670     0.0603 N.2          1    LIG   0.0000
  13 N13         -2.1675    -2.6612     0.0306 N.2          1    LIG   0.0000
  14 O14         -1.0032    -2.1714     0.0178 O.2          1    LIG   0.0000
  15 C15         -0.1511     1.3809     0.0074 C.2          1    LIG   0.0000
  16 C16         -1.4893     2.1065     0.0137 C.3          1    LIG   0.0000
  17 S17          1.3982     2.0893    -0.0026 S.3          1    LIG   0.0000
  18 H            4.0401    -0.4550    -0.0034 H            1    LIG   0.0000
  19 H            4.1469     0.9601    -0.8112 H            1    LIG   0.0000
  20 H            4.1384     0.9507     0.8218 H            1    LIG   0.0000
  21 H           -5.1571     0.2035     0.0695 H            1    LIG   0.0000
  22 H           -7.2052    -3.2847     0.0887 H            1    LIG   0.0000
  23 H           -2.2317     1.4365     0.0190 H            1    LIG   0.0000
  24 H           -1.5531     2.6811     0.8296 H            1    LIG   0.0000
  25 H           -1.5623     2.6783    -0.8034 H            1    LIG   0.0000
@<TRIPOS>BOND
   1        1        2 1
   2        2        3 2
   3        3        4 1
   4        4        5 1
   5        5        6 2
   6        6        7 1
   7        7        8 1
   8        8        9 2
   9        9       10 1
  10       10       11 1
  11       11       12 2
  12       12        8 1
  13        7       13 2
  14       13       14 1
  15       14        5 1
  16        4       15 2
  17       15       16 1
  18       15       17 1
  19       17        2 1
  20        1       18 1
  21        1       19 1
  22        1       20 1
  23        9       21 1
  24       11       22 1
  25       16       23 1
  26       16       24 1
  27       16       25 1

@<TRIPOS>MOLECULE

  25   27
SMALL
USER_CHARGES
@<TRIPOS>ATOM
   1 C1           3.7760     0.5095     0.0008 C.3          1    LIG   0.0000
   2 C2           2.2579     0.6199    -0.0065 C.2          1    LIG   0.0000
   3 N3           1.3761    -0.3528     0.0004 N.2          1    LIG   0.0000
   4 C4           0.0678     0.0408     0.0054 C.2          1    LIG   0.0000
   5 C5          -1.0669    -0.8619     0.0181 C.2          1    LIG   0.0000
   6 N6          -2.0056    -0.9209    -0.8931 N.2          1    LIG   0.0000
   7 C7          -2.8472    -1.9024    -0.4673 C.2          1    LIG   0.0000
   8 C8          -4.0491    -2.3435    -1.1473 C.2          1    LIG   0.0000
   9 C9          -4.8966    -3.3291    -0.7299 C.2          1    LIG   0.0000
  10 O10         -5.8546    -3.4096    -1.6247 O.2          1    LIG   0.0000
  11 C11         -5.6314    -2.5245    -2.5850 C.2          1    LIG   0.0000
  12 N12         -4.5321    -1.8502    -2.3202 N.2          1    LIG   0.0000
  13 N13         -2.3857    -2.3781     0.6592 N.2          1    LIG   0.0000
  14 O14         -1.3245    -1.7545     0.9432 O.2          1    LIG   0.0000
  15 C15         -0.1511     1.3809     0.0074 C.2          1    LIG   0.0000
  16 C16         -1.4893     2.1065     0.0137 C.3          1    LIG   0.0000
  17 S17          1.3982     2.0893    -0.0026 S.3          1    LIG   0.0000
  18 H            4.0401    -0.4550    -0.0034 H            1    LIG   0.0000
  19 H            4.1469     0.9601    -0.8112 H            1    LIG   0.0000
  20 H            4.1384     0.9507     0.8218 H            1    LIG   0.0000
  21 H           -4.8055    -3.8830     0.0976 H            1    LIG   0.0000
  22 H           -6.2102    -2.3891    -3.3892 H            1    LIG   0.0000
  23 H           -2.2317     1.4365     0.0190 H            1    LIG   0.0000
  24 H           -1.5531     2.6811     0.8296 H            1    LIG   0.0000
  25 H           -1.5623     2.6783    -0.8034 H            1    LIG   0.0000
@<TRIPOS>BOND
   1        1        2 1
   2        2        3 2
   3        3        4 1
   4        4        5 1
   5        5        6 2
   6        6        7 1
   7        7        8 1
   8        8        9 2
   9        9       10 1
  10       10       11 1
  11       11       12 2
  12       12        8 1
  13        7       13 2
  14       13       14 1
  15       14        5 1
  16        4       15 2
  17       15       16 1
  18       15       17 1
  19       17        2 1
  20        1       18 1
  21        1       19 1
  22        1       20 1
  23        9       21 1
  24       11       22 1
  25       16       23 1
  26       16       24 1
  27       16       25 1

@<TRIPOS>MOLECULE

  25   27
SMALL
USER_CHARGES
@<TRIPOS>ATOM
   1 C1           3.7760     0.5095     0.0008 C.3          1    LIG   0.0000
   2 C2           2.2579     0.6199    -0.0065 C.2          1    LIG   0.0000
   3 N3           1.3761    -0.3528     0.0004 N.2          1    LIG   0.0000
   4 C4           0.0678     0.0408     0.0054 C.2          1    LIG   0.0000
   5 C5          -1.0669    -0.8619     0.0181 C.2          1    LIG   0.0000
   6 N6          -2.0056    -0.9209    -0.8931 N.2          1    LIG   0.0000
   7 C7          -2.8472    -1.9024    -0.4673 C.2          1    LIG   0.0000
   8 C8          -4.0491    -2.3435    -1.1473 C.2          1    LIG   0.0000
   9 C9          -4.5393    -1.8488    -2.3215 C.2          1    LIG   0.0000
  10 O10         -5.6349    -2.5219    -2.5887 O.2          1    LIG   0.0000
  11 C11         -5.8517    -3.4047    -1.6247 C.2          1    LIG   0.0000
  12 N12         -4.8935    -3.3239    -0.7255 N.2          1    LIG   0.0000
  13 N13         -2.3857    -2.3781     0.6592 N.2          1    LIG   0.0000
  14 O14         -1.3245    -1.7545     0.9432 O.2          1    LIG   0.0000
  15 C15         -0.1511     1.3809     0.0074 C.2          1    LIG   0.0000
  16 C16         -1.4893     2.1065     0.0137 C.3          1    LIG   0.0000
  17 S17          1.3982     2.0893    -0.0026 S.3          1    LIG   0.0000
  18 H            4.0401    -0.4550    -0.0034 H            1    LIG   0.0000
  19 H            4.1469     0.9601    -0.8112 H            1    LIG   0.0000
  20 H            4.1384     0.9507     0.8218 H            1    LIG   0.0000
  21 H           -4.1409    -1.1153    -2.8722 H            1    LIG   0.0000
  22 H           -6.6258    -4.0366    -1.5861 H            1    LIG   0.0000
  23 H           -2.2317     1.4365     0.0190 H            1    LIG   0.0000
  24 H           -1.5531     2.6811     0.8296 H            1    LIG   0.0000
  25 H           -1.5623     2.6783    -0.8034 H            1    LIG   0.0000
@<TRIPOS>BOND
   1        1        2 1
   2        2        3 2
   3        3        4 1
   4        4        5 1
   5        5        6 2
   6        6        7 1
   7        7        8 1
   8        8        9 2
   9        9       10 1
  10       10       11 1
  11       11       12 2
  12       12        8 1
  13        7       13 2
  14       13       14 1
  15       14        5 1
  16        4       15 2
  17       15       16 1
  18       15       17 1
  19       17        2 1
  20        1       18 1
  21        1       19 1
  22        1       20 1
  23        9       21 1
  24       11       22 1
  25       16       23 1
  26       16       24 1
  27       16       25 1

@<TRIPOS>MOLECULE

  25   27
SMALL
USER_CHARGES
@<TRIPOS>ATOM
   1 C1           3.7760     0.5095     0.0008 C.3          1    LIG   0.0000
   2 C2           2.2579     0.6199    -0.0065 C.2          1    LIG   0.0000
   3 N3           1.3761    -0.3528     0.0004 N.2          1    LIG   0.0000
   4 C4           0.0678     0.0408     0.0054 C.2          1    LIG   0.0000
   5 C5          -1.0669    -0.8619     0.0181 C.2          1    LIG   0.0000
   6 N6          -1.9854    -0.9205     0.9497 N.2          1    LIG   0.0000
   7 C7          -2.8371    -1.9009     0.5420 C.2          1    LIG   0.0000
   8 C8          -4.0256    -2.3395     1.2468 C.2          1    LIG   0.0000
   9 C9          -4.8873    -3.3187     0.8438 C.2          1    LIG   0.0000
  10 O10         -5.8209    -3.4043     1.7634 O.2          1    LIG   0.0000
  11 C11         -5.5819    -2.5123     2.7136 C.2          1    LIG   0.0000
  12 N12         -4.4839    -1.8443     2.4287 N.2          1    LIG   0.0000
  13 N13         -2.3994    -2.3784    -0.5932 N.2          1    LIG   0.0000
  14 O14         -1.3446    -1.7551    -0.9006 O.2          1    LIG   0.0000
  15 C15         -0.1511     1.3809     0.0074 C.2          1    LIG   0.0000
  16 C16         -1.4893     2.1065     0.0137 C.3          1    LIG   0.0000
  17 S17          1.3982     2.0893    -0.0026 S.3          1    LIG   0.0000
  18 H            4.0401    -0.4550    -0.0034 H            1    LIG   0.0000
  19 H            4.1469     0.9601    -0.8112 H            1    LIG   0.0000
  20 H            4.1384     0.9507     0.8218 H            1    LIG   0.0000
  21 H           -4.8205    -3.8655     0.0092 H            1    LIG   0.0000
  22 H           -6.1496    -2.3684     3.5241 H            1    LIG   0.0000
  23 H           -2.2317     1.4365     0.0190 H            1    LIG   0.0000
  24 H           -1.5531     2.6811     0.8296 H            1    LIG   0.0000
  25 H           -1.5623     2.6783    -0.8034 H            1    LIG   0.0000
@<TRIPOS>BOND
   1        1        2 1
   2        2        3 2
   3        3        4 1
   4        4        5 1
   5        5        6 2
   6        6        7 1
   7        7        8 1
   8        8        9 2
   9        9       10 1
  10       10       11 1
  11       11       12 2
  12       12        8 1
  13        7       13 2
  14       13       14 1
  15       14        5 1
  16        4       15 2
  17       15       16 1
  18       15       17 1
  19       17        2 1
  20        1       18 1
  21        1       19 1
  22        1       20 1
  23        9       21 1
  24       11       22 1
  25       16       23 1
  26       16       24 1
  27       16       25 1

@<TRIPOS>MOLECULE

  25   27
SMALL
USER_CHARGES
@<TRIPOS>ATOM
   1 C1           3.7760     0.5095     0.0008 C.3          1    LIG   0.0000
   2 C2           2.2579     0.6199    -0.0065 C.2          1    LIG   0.0000
   3 N3           1.3761    -0.3528     0.0004 N.2          1    LIG   0.0000
   4 C4           0.0678     0.0408     0.0054 C.2          1    LIG   0.0000
   5 C5          -1.0669    -0.8619     0.0181 C.2          1    LIG   0.0000
   6 N6          -1.9854    -0.9205     0.9497 N.2          1    LIG   0.0000
   7 C7          -2.8371    -1.9009     0.5420 C.2          1    LIG   0.0000
   8 C8          -4.0256    -2.3395     1.2468 C.2          1    LIG   0.0000
   9 C9          -4.4866    -1.8484     2.4343 C.2          1    LIG   0.0000
  10 O10         -5.5835    -2.5121     2.7190 O.2          1    LIG   0.0000
  11 C11         -5.8162    -3.4018     1.7651 C.2          1    LIG   0.0000
  12 N12         -4.8799    -3.3191     0.8434 N.2          1    LIG   0.0000
  13 N13         -2.3994    -2.3784    -0.5932 N.2          1    LIG   0.0000
  14 O14         -1.3446    -1.7551    -0.9006 O.2          1    LIG   0.0000
  15 C15         -0.1511     1.3809     0.0074 C.2          1    LIG   0.0000
  16 C16         -1.4893     2.1065     0.0137 C.3          1    LIG   0.0000
  17 S17          1.3982     2.0893    -0.0026 S.3          1    LIG   0.0000
  18 H            4.0401    -0.4550    -0.0034 H            1    LIG   0.0000
  19 H            4.1469     0.9601    -0.8112 H            1    LIG   0.0000
  20 H            4.1384     0.9507     0.8218 H            1    LIG   0.0000
  21 H           -4.0694    -1.1230     2.9819 H            1    LIG   0.0000
  22 H           -6.5863    -4.0395     1.7480 H            1    LIG   0.0000
  23 H           -2.2317     1.4365     0.0190 H            1    LIG   0.0000
  24 H           -1.5531     2.6811     0.8296 H            1    LIG   0.0000
  25 H           -1.5623     2.6783    -0.8034 H            1    LIG   0.0000
@<TRIPOS>BOND
   1        1        2 1
   2        2        3 2
   3        3        4 1
   4        4        5 1
   5        5        6 2
   6        6        7 1
   7        7        8 1
   8        8        9 2
   9        9       10 1
  10       10       11 1
  11       11       12 2
  12       12        8 1
  13        7       13 2
  14       13       14 1
  15       14        5 1
  16        4       15 2
  17       15       16 1
  18       15       17 1
  19       17        2 1
  20        1       18 1
  21        1       19 1
  22        1       20 1
  23        9       21 1
  24       11       22 1
  25       16       23 1
  26       16       24 1
  27       16       25 1

