@<TRIPOS>MOLECULE
*****
 25 27 0 0 0
SMALL
USER_CHARGES

@<TRIPOS>ATOM
      1 C1          3.7760    0.5095    0.0008 C.3     1  LIG1        0.0000
      2 C2          2.2579    0.6199   -0.0065 C.2     1  LIG1        0.0000
      3 N3          1.3761   -0.3528    0.0004 N.2     1  LIG1        0.0000
      4 C4          0.0678    0.0408    0.0054 C.2     1  LIG1        0.0000
      5 C5         -1.0669   -0.8619    0.0181 C.2     1  LIG1        0.0000
      6 N6         -1.0021   -2.1698    0.0177 N.2     1  LIG1        0.0000
      7 C7         -2.2981   -2.5857    0.0330 C.2     1  LIG1        0.0000
      8 C8         -2.7467   -3.9642    0.0398 C.2     1  LIG1        0.0000
      9 C9         -4.0435   -4.3905    0.0590 C.2     1  LIG1        0.0000
     10 O10        -4.0112   -5.7034    0.0548 O.2     1  LIG1        0.0000
     11 C11        -2.7502   -6.1098    0.0458 C.2     1  LIG1        0.0000
     12 N12        -1.9479   -5.0661    0.0323 N.2     1  LIG1        0.0000
     13 N13        -3.0676   -1.5294    0.0402 N.2     1  LIG1        0.0000
     14 O14        -2.3285   -0.5051    0.0317 O.2     1  LIG1        0.0000
     15 C15        -0.1511    1.3809    0.0074 C.2     1  LIG1        0.0000
     16 C16        -1.4893    2.1065    0.0137 C.3     1  LIG1        0.0000
     17 S17         1.3982    2.0893   -0.0026 S.3     1  LIG1        0.0000
     18 H           4.0401   -0.4550   -0.0034 H       1  LIG1        0.0000
     19 H           4.1469    0.9601   -0.8112 H       1  LIG1        0.0000
     20 H           4.1384    0.9507    0.8218 H       1  LIG1        0.0000
     21 H          -4.8605   -3.8142    0.0734 H       1  LIG1        0.0000
     22 H          -2.4528   -7.0646    0.0489 H       1  LIG1        0.0000
     23 H          -2.2317    1.4365    0.0190 H       1  LIG1        0.0000
     24 H          -1.5531    2.6811    0.8296 H       1  LIG1        0.0000
     25 H          -1.5623    2.6783   -0.8034 H       1  LIG1        0.0000
@<TRIPOS>BOND
     1     1     2    1
     2     2     3    2
     3     3     4    1
     4     4     5    1
     5     5     6    2
     6     6     7    1
     7     7     8    1
     8     8     9    2
     9     9    10    1
    10    10    11    1
    11    11    12    2
    12    12     8    1
    13     7    13    2
    14    13    14    1
    15    14     5    1
    16     4    15    2
    17    15    16    1
    18    15    17    1
    19    17     2    1
    20     1    18    1
    21     1    19    1
    22     1    20    1
    23     9    21    1
    24    11    22    1
    25    16    23    1
    26    16    24    1
    27    16    25    1
