@<TRIPOS>MOLECULE

  34   36
SMALL
USER_CHARGES
@<TRIPOS>ATOM
   1 O1           3.4788     1.7583     1.7583 O.2          1    LIG   0.0000
   2 S2           2.0450     2.0450     2.0450 S.o          1    LIG   0.0000
   3 C3           1.0000     1.0000     1.0000 C.3          1    LIG   0.0000
   4 C4           1.2919     1.2919    -0.4594 C.3          1    LIG   0.0000
   5 C5           0.5460     0.5460    -1.5215 C.3          1    LIG   0.0000
   6 C6           0.2223     1.9908    -1.2502 C.3          1    LIG   0.0000
   7 C7           1.6966     1.6966     3.7868 C.3          1    LIG   0.0000
   8 C8           0.2298     1.9758     4.0774 C.3          1    LIG   0.0000
   9 C9          -0.0861     1.5697     5.5114 C.3          1    LIG   0.0000
  10 C10          0.9205     2.1117     6.5137 C.ar         1    LIG   0.0000
  11 C11          0.5419     2.1351     7.8553 C.ar         1    LIG   0.0000
  12 C12          1.4408     2.5980     8.8128 C.ar         1    LIG   0.0000
  13 C13          2.7060     3.0327     8.4308 C.ar         1    LIG   0.0000
  14 C14          3.0598     3.0060     7.0863 C.ar         1    LIG   0.0000
  15 C15          2.1741     2.5564     6.1091 C.ar         1    LIG   0.0000
  16 C16          2.5855     2.5855     4.6430 C.3          1    LIG   0.0000
  17 H            1.8983     0.7368     3.9817 H            1    LIG   0.0000
  18 H            0.0377     1.1925     1.1925 H            1    LIG   0.0000
  19 H            1.1925     0.0377     1.1925 H            1    LIG   0.0000
  20 H            2.2350     1.5424    -0.6778 H            1    LIG   0.0000
  21 H           -0.1055    -0.1686    -1.2666 H            1    LIG   0.0000
  22 H            1.0086     0.2881    -2.3697 H            1    LIG   0.0000
  23 H            0.4709     2.6933    -1.9170 H            1    LIG   0.0000
  24 H           -0.6432     2.2367    -0.8138 H            1    LIG   0.0000
  25 H           -0.3415     1.4494     3.4477 H            1    LIG   0.0000
  26 H            0.0455     2.9515     3.9583 H            1    LIG   0.0000
  27 H           -0.9929     1.9177     5.7495 H            1    LIG   0.0000
  28 H           -0.0870     0.5713     5.5678 H            1    LIG   0.0000
  29 H           -0.3679     1.8220     8.1278 H            1    LIG   0.0000
  30 H            1.1764     2.6180     9.7770 H            1    LIG   0.0000
  31 H            3.3550     3.3614     9.1169 H            1    LIG   0.0000
  32 H            3.9707     3.3166     6.8145 H            1    LIG   0.0000
  33 H            3.5306     2.2678     4.5661 H            1    LIG   0.0000
  34 H            2.5216     3.5255     4.3079 H            1    LIG   0.0000
@<TRIPOS>BOND
   1        1        2 2
   2        2        3 1
   3        3        4 1
   4        4        5 1
   5        5        6 1
   6        6        4 1
   7        2        7 1
   8        7        8 1
   9        8        9 1
  10        9       10 1
  11       10       11 ar
  12       11       12 ar
  13       12       13 ar
  14       13       14 ar
  15       14       15 ar
  16       15       10 ar
  17       15       16 1
  18       16        7 1
  19        7       17 1
  20        3       18 1
  21        3       19 1
  22        4       20 1
  23        5       21 1
  24        5       22 1
  25        6       23 1
  26        6       24 1
  27        8       25 1
  28        8       26 1
  29        9       27 1
  30        9       28 1
  31       11       29 1
  32       12       30 1
  33       13       31 1
  34       14       32 1
  35       16       33 1
  36       16       34 1

@<TRIPOS>MOLECULE

  34   36
SMALL
USER_CHARGES
@<TRIPOS>ATOM
   1 O1           3.4788     1.7583     1.7583 O.2          1    LIG   0.0000
   2 S2           2.0450     2.0450     2.0450 S.o          1    LIG   0.0000
   3 C3           1.0000     1.0000     1.0000 C.3          1    LIG   0.0000
   4 C4           1.2919     1.2919    -0.4594 C.3          1    LIG   0.0000
   5 C5           0.5460     0.5460    -1.5215 C.3          1    LIG   0.0000
   6 C6           0.2223     1.9908    -1.2502 C.3          1    LIG   0.0000
   7 C7           1.6966     1.6966     3.7868 C.3          1    LIG   0.0000
   8 C8           2.0023     0.2364     4.0840 C.3          1    LIG   0.0000
   9 C9           1.8212    -0.0232     5.5743 C.3          1    LIG   0.0000
  10 C10          0.5068     0.5193     6.1125 C.ar         1    LIG   0.0000
  11 C11          0.0606     0.0233     7.3367 C.ar         1    LIG   0.0000
  12 C12         -1.1245     0.5102     7.8822 C.ar         1    LIG   0.0000
  13 C13         -1.8551     1.4840     7.2088 C.ar         1    LIG   0.0000
  14 C14         -1.3940     1.9598     5.9862 C.ar         1    LIG   0.0000
  15 C15         -0.2164     1.4809     5.4159 C.ar         1    LIG   0.0000
  16 C16          0.2297     1.9966     4.0541 C.3          1    LIG   0.0000
  17 H            2.2670     2.2809     4.3642 H            1    LIG   0.0000
  18 H            0.0377     1.1925     1.1925 H            1    LIG   0.0000
  19 H            1.1925     0.0377     1.1925 H            1    LIG   0.0000
  20 H            2.2350     1.5424    -0.6778 H            1    LIG   0.0000
  21 H           -0.1055    -0.1686    -1.2666 H            1    LIG   0.0000
  22 H            1.0086     0.2881    -2.3697 H            1    LIG   0.0000
  23 H            0.4709     2.6933    -1.9170 H            1    LIG   0.0000
  24 H           -0.6432     2.2367    -0.8138 H            1    LIG   0.0000
  25 H            2.9455     0.0325     3.8217 H            1    LIG   0.0000
  26 H            1.3783    -0.3478     3.5650 H            1    LIG   0.0000
  27 H            1.8477    -1.0104     5.7320 H            1    LIG   0.0000
  28 H            2.5731     0.4135     6.0682 H            1    LIG   0.0000
  29 H            0.5874    -0.6765     7.8191 H            1    LIG   0.0000
  30 H           -1.4511     0.1591     8.7598 H            1    LIG   0.0000
  31 H           -2.7041     1.8386     7.6005 H            1    LIG   0.0000
  32 H           -1.9196     2.6616     5.5054 H            1    LIG   0.0000
  33 H            0.0910     2.9864     4.0219 H            1    LIG   0.0000
  34 H           -0.3240     1.5592     3.3455 H            1    LIG   0.0000
@<TRIPOS>BOND
   1        1        2 2
   2        2        3 1
   3        3        4 1
   4        4        5 1
   5        5        6 1
   6        6        4 1
   7        2        7 1
   8        7        8 1
   9        8        9 1
  10        9       10 1
  11       10       11 ar
  12       11       12 ar
  13       12       13 ar
  14       13       14 ar
  15       14       15 ar
  16       15       10 ar
  17       15       16 1
  18       16        7 1
  19        7       17 1
  20        3       18 1
  21        3       19 1
  22        4       20 1
  23        5       21 1
  24        5       22 1
  25        6       23 1
  26        6       24 1
  27        8       25 1
  28        8       26 1
  29        9       27 1
  30        9       28 1
  31       11       29 1
  32       12       30 1
  33       13       31 1
  34       14       32 1
  35       16       33 1
  36       16       34 1

@<TRIPOS>MOLECULE

  34   36
SMALL
USER_CHARGES
@<TRIPOS>ATOM
   1 O1           3.4788     1.7583     1.7583 O.2          1    LIG   0.0000
   2 S2           2.0450     2.0450     2.0450 S.o          1    LIG   0.0000
   3 C3           1.0000     1.0000     1.0000 C.3          1    LIG   0.0000
   4 C4           1.2919     1.2919    -0.4594 C.3          1    LIG   0.0000
   5 C5           0.5460     0.5460    -1.5215 C.3          1    LIG   0.0000
   6 C6           0.2223     1.9908    -1.2502 C.3          1    LIG   0.0000
   7 C7           1.6966     1.6966     3.7868 C.3          1    LIG   0.0000
   8 C8           2.5644     2.5843     4.6660 C.3          1    LIG   0.0000
   9 C9           2.1845     2.3732     6.1263 C.3          1    LIG   0.0000
  10 C10          2.1075     0.9038     6.5095 C.ar         1    LIG   0.0000
  11 C11          2.1476     0.5916     7.8677 C.ar         1    LIG   0.0000
  12 C12          2.0531    -0.7388     8.2679 C.ar         1    LIG   0.0000
  13 C13          1.9197    -1.7462     7.3178 C.ar         1    LIG   0.0000
  14 C14          1.8881    -1.4120     5.9683 C.ar         1    LIG   0.0000
  15 C15          1.9907    -0.0890     5.5433 C.ar         1    LIG   0.0000
  16 C16          1.9966     0.2297     4.0541 C.3          1    LIG   0.0000
  17 H            0.7321     1.8798     3.9771 H            1    LIG   0.0000
  18 H            0.0377     1.1925     1.1925 H            1    LIG   0.0000
  19 H            1.1925     0.0377     1.1925 H            1    LIG   0.0000
  20 H            2.2350     1.5424    -0.6778 H            1    LIG   0.0000
  21 H           -0.1055    -0.1686    -1.2666 H            1    LIG   0.0000
  22 H            1.0086     0.2881    -2.3697 H            1    LIG   0.0000
  23 H            0.4709     2.6933    -1.9170 H            1    LIG   0.0000
  24 H           -0.6432     2.2367    -0.8138 H            1    LIG   0.0000
  25 H            2.4204     3.5425     4.4187 H            1    LIG   0.0000
  26 H            3.5268     2.3469     4.5337 H            1    LIG   0.0000
  27 H            2.8704     2.8179     6.7022 H            1    LIG   0.0000
  28 H            1.2911     2.7925     6.2876 H            1    LIG   0.0000
  29 H            2.2433     1.3173     8.5491 H            1    LIG   0.0000
  30 H            2.0813    -0.9705     9.2403 H            1    LIG   0.0000
  31 H            1.8472    -2.7020     7.6026 H            1    LIG   0.0000
  32 H            1.7895    -2.1376     5.2874 H            1    LIG   0.0000
  33 H            1.3027    -0.3299     3.6010 H            1    LIG   0.0000
  34 H            2.8978     0.0106     3.6801 H            1    LIG   0.0000
@<TRIPOS>BOND
   1        1        2 2
   2        2        3 1
   3        3        4 1
   4        4        5 1
   5        5        6 1
   6        6        4 1
   7        2        7 1
   8        7        8 1
   9        8        9 1
  10        9       10 1
  11       10       11 ar
  12       11       12 ar
  13       12       13 ar
  14       13       14 ar
  15       14       15 ar
  16       15       10 ar
  17       15       16 1
  18       16        7 1
  19        7       17 1
  20        3       18 1
  21        3       19 1
  22        4       20 1
  23        5       21 1
  24        5       22 1
  25        6       23 1
  26        6       24 1
  27        8       25 1
  28        8       26 1
  29        9       27 1
  30        9       28 1
  31       11       29 1
  32       12       30 1
  33       13       31 1
  34       14       32 1
  35       16       33 1
  36       16       34 1

@<TRIPOS>MOLECULE

  34   36
SMALL
USER_CHARGES
@<TRIPOS>ATOM
   1 O1           3.4788     1.7583     1.7583 O.2          1    LIG   0.0000
   2 S2           2.0450     2.0450     2.0450 S.o          1    LIG   0.0000
   3 C3           1.0000     1.0000     1.0000 C.3          1    LIG   0.0000
   4 C4           1.2919     1.2919    -0.4594 C.3          1    LIG   0.0000
   5 C5           0.5460     0.5460    -1.5215 C.3          1    LIG   0.0000
   6 C6           0.2223     1.9908    -1.2502 C.3          1    LIG   0.0000
   7 C7           1.6966     1.6966     3.7868 C.3          1    LIG   0.0000
   8 C8           0.2425     1.9338     4.1588 C.3          1    LIG   0.0000
   9 C9          -0.1599     3.3257     3.7004 C.3          1    LIG   0.0000
  10 C10          0.8222     4.3667     4.2202 C.ar         1    LIG   0.0000
  11 C11          0.4053     5.6940     4.2199 C.ar         1    LIG   0.0000
  12 C12          1.2838     6.6736     4.6703 C.ar         1    LIG   0.0000
  13 C13          2.5542     6.3175     5.1121 C.ar         1    LIG   0.0000
  14 C14          2.9534     4.9851     5.1097 C.ar         1    LIG   0.0000
  15 C15          2.0893     3.9943     4.6709 C.ar         1    LIG   0.0000
  16 C16          2.5465     2.5465     4.7204 C.3          1    LIG   0.0000
  17 H            1.9096     0.7352     3.9606 H            1    LIG   0.0000
  18 H            0.0377     1.1925     1.1925 H            1    LIG   0.0000
  19 H            1.1925     0.0377     1.1925 H            1    LIG   0.0000
  20 H            2.2350     1.5424    -0.6778 H            1    LIG   0.0000
  21 H           -0.1055    -0.1686    -1.2666 H            1    LIG   0.0000
  22 H            1.0086     0.2881    -2.3697 H            1    LIG   0.0000
  23 H            0.4709     2.6933    -1.9170 H            1    LIG   0.0000
  24 H           -0.6432     2.2367    -0.8138 H            1    LIG   0.0000
  25 H            0.1333     1.8618     5.1503 H            1    LIG   0.0000
  26 H           -0.3348     1.2520     3.7095 H            1    LIG   0.0000
  27 H           -0.1687     3.3526     2.7008 H            1    LIG   0.0000
  28 H           -1.0742     3.5344     4.0476 H            1    LIG   0.0000
  29 H           -0.5102     5.9394     3.9014 H            1    LIG   0.0000
  30 H            1.0026     7.6332     4.6766 H            1    LIG   0.0000
  31 H            3.1845     7.0242     5.4334 H            1    LIG   0.0000
  32 H            3.8698     4.7405     5.4266 H            1    LIG   0.0000
  33 H            2.4554     2.2028     5.6551 H            1    LIG   0.0000
  34 H            3.5040     2.4922     4.4372 H            1    LIG   0.0000
@<TRIPOS>BOND
   1        1        2 2
   2        2        3 1
   3        3        4 1
   4        4        5 1
   5        5        6 1
   6        6        4 1
   7        2        7 1
   8        7        8 1
   9        8        9 1
  10        9       10 1
  11       10       11 ar
  12       11       12 ar
  13       12       13 ar
  14       13       14 ar
  15       14       15 ar
  16       15       10 ar
  17       15       16 1
  18       16        7 1
  19        7       17 1
  20        3       18 1
  21        3       19 1
  22        4       20 1
  23        5       21 1
  24        5       22 1
  25        6       23 1
  26        6       24 1
  27        8       25 1
  28        8       26 1
  29        9       27 1
  30        9       28 1
  31       11       29 1
  32       12       30 1
  33       13       31 1
  34       14       32 1
  35       16       33 1
  36       16       34 1

@<TRIPOS>MOLECULE

  34   36
SMALL
USER_CHARGES
@<TRIPOS>ATOM
   1 O1           3.4788     1.7583     1.7583 O.2          1    LIG   0.0000
   2 S2           2.0450     2.0450     2.0450 S.o          1    LIG   0.0000
   3 C3           1.0000     1.0000     1.0000 C.3          1    LIG   0.0000
   4 C4           1.2919     1.2919    -0.4594 C.3          1    LIG   0.0000
   5 C5           0.5460     0.5460    -1.5215 C.3          1    LIG   0.0000
   6 C6           0.2223     1.9908    -1.2502 C.3          1    LIG   0.0000
   7 C7           1.6966     1.6966     3.7868 C.3          1    LIG   0.0000
   8 C8           2.5934     0.6148     4.3652 C.3          1    LIG   0.0000
   9 C9           2.5431    -0.6016     3.4556 C.3          1    LIG   0.0000
  10 C10          1.1020    -1.0204     3.1987 C.ar         1    LIG   0.0000
  11 C11          0.8874    -2.3074     2.7161 C.ar         1    LIG   0.0000
  12 C12         -0.4152    -2.7170     2.4524 C.ar         1    LIG   0.0000
  13 C13         -1.4761    -1.8443     2.6736 C.ar         1    LIG   0.0000
  14 C14         -1.2442    -0.5623     3.1607 C.ar         1    LIG   0.0000
  15 C15          0.0465    -0.1388     3.4357 C.ar         1    LIG   0.0000
  16 C16          0.2568     1.2542     4.0041 C.3          1    LIG   0.0000
  17 H            1.8463     2.5367     4.3082 H            1    LIG   0.0000
  18 H            0.0377     1.1925     1.1925 H            1    LIG   0.0000
  19 H            1.1925     0.0377     1.1925 H            1    LIG   0.0000
  20 H            2.2350     1.5424    -0.6778 H            1    LIG   0.0000
  21 H           -0.1055    -0.1686    -1.2666 H            1    LIG   0.0000
  22 H            1.0086     0.2881    -2.3697 H            1    LIG   0.0000
  23 H            0.4709     2.6933    -1.9170 H            1    LIG   0.0000
  24 H           -0.6432     2.2367    -0.8138 H            1    LIG   0.0000
  25 H            2.2721     0.3648     5.2786 H            1    LIG   0.0000
  26 H            3.5329     0.9524     4.4231 H            1    LIG   0.0000
  27 H            2.9807    -0.3787     2.5845 H            1    LIG   0.0000
  28 H            3.0323    -1.3576     3.8905 H            1    LIG   0.0000
  29 H            1.6567    -2.9274     2.5614 H            1    LIG   0.0000
  30 H           -0.5893    -3.6380     2.1039 H            1    LIG   0.0000
  31 H           -2.4115    -2.1409     2.4812 H            1    LIG   0.0000
  32 H           -2.0137     0.0578     3.3134 H            1    LIG   0.0000
  33 H            0.0581     1.2450     4.9841 H            1    LIG   0.0000
  34 H           -0.3587     1.8949     3.5452 H            1    LIG   0.0000
@<TRIPOS>BOND
   1        1        2 2
   2        2        3 1
   3        3        4 1
   4        4        5 1
   5        5        6 1
   6        6        4 1
   7        2        7 1
   8        7        8 1
   9        8        9 1
  10        9       10 1
  11       10       11 ar
  12       11       12 ar
  13       12       13 ar
  14       13       14 ar
  15       14       15 ar
  16       15       10 ar
  17       15       16 1
  18       16        7 1
  19        7       17 1
  20        3       18 1
  21        3       19 1
  22        4       20 1
  23        5       21 1
  24        5       22 1
  25        6       23 1
  26        6       24 1
  27        8       25 1
  28        8       26 1
  29        9       27 1
  30        9       28 1
  31       11       29 1
  32       12       30 1
  33       13       31 1
  34       14       32 1
  35       16       33 1
  36       16       34 1

@<TRIPOS>MOLECULE

  34   36
SMALL
USER_CHARGES
@<TRIPOS>ATOM
   1 O1           3.4788     1.7583     1.7583 O.2          1    LIG   0.0000
   2 S2           2.0450     2.0450     2.0450 S.o          1    LIG   0.0000
   3 C3           1.0000     1.0000     1.0000 C.3          1    LIG   0.0000
   4 C4           1.2919     1.2919    -0.4594 C.3          1    LIG   0.0000
   5 C5           0.5460     0.5460    -1.5215 C.3          1    LIG   0.0000
   6 C6           0.2223     1.9908    -1.2502 C.3          1    LIG   0.0000
   7 C7           1.6966     1.6966     3.7868 C.3          1    LIG   0.0000
   8 C8           2.5124     2.5569     4.7374 C.3          1    LIG   0.0000
   9 C9           3.9794     2.4550     4.3541 C.3          1    LIG   0.0000
  10 C10          4.4105     0.9975     4.2640 C.ar         1    LIG   0.0000
  11 C11          5.7756     0.7319     4.3016 C.ar         1    LIG   0.0000
  12 C12          6.2059    -0.5869     4.2026 C.ar         1    LIG   0.0000
  13 C13          5.2757    -1.6130     4.0702 C.ar         1    LIG   0.0000
  14 C14          3.9142    -1.3304     4.0388 C.ar         1    LIG   0.0000
  15 C15          3.4663    -0.0229     4.1429 C.ar         1    LIG   0.0000
  16 C16          1.9706     0.2430     4.1446 C.3          1    LIG   0.0000
  17 H            0.7280     1.8810     3.9535 H            1    LIG   0.0000
  18 H            0.0377     1.1925     1.1925 H            1    LIG   0.0000
  19 H            1.1925     0.0377     1.1925 H            1    LIG   0.0000
  20 H            2.2350     1.5424    -0.6778 H            1    LIG   0.0000
  21 H           -0.1055    -0.1686    -1.2666 H            1    LIG   0.0000
  22 H            1.0086     0.2881    -2.3697 H            1    LIG   0.0000
  23 H            0.4709     2.6933    -1.9170 H            1    LIG   0.0000
  24 H           -0.6432     2.2367    -0.8138 H            1    LIG   0.0000
  25 H            2.3868     2.2332     5.6752 H            1    LIG   0.0000
  26 H            2.2129     3.5086     4.6704 H            1    LIG   0.0000
  27 H            4.1184     2.8942     3.4666 H            1    LIG   0.0000
  28 H            4.5327     2.9190     5.0459 H            1    LIG   0.0000
  29 H            6.4361     1.4765     4.3981 H            1    LIG   0.0000
  30 H            7.1832    -0.7975     4.2266 H            1    LIG   0.0000
  31 H            5.5880    -2.5602     3.9973 H            1    LIG   0.0000
  32 H            3.2542    -2.0752     3.9404 H            1    LIG   0.0000
  33 H            1.6017     0.0512     5.0541 H            1    LIG   0.0000
  34 H            1.5283    -0.3517     3.4733 H            1    LIG   0.0000
@<TRIPOS>BOND
   1        1        2 2
   2        2        3 1
   3        3        4 1
   4        4        5 1
   5        5        6 1
   6        6        4 1
   7        2        7 1
   8        7        8 1
   9        8        9 1
  10        9       10 1
  11       10       11 ar
  12       11       12 ar
  13       12       13 ar
  14       13       14 ar
  15       14       15 ar
  16       15       10 ar
  17       15       16 1
  18       16        7 1
  19        7       17 1
  20        3       18 1
  21        3       19 1
  22        4       20 1
  23        5       21 1
  24        5       22 1
  25        6       23 1
  26        6       24 1
  27        8       25 1
  28        8       26 1
  29        9       27 1
  30        9       28 1
  31       11       29 1
  32       12       30 1
  33       13       31 1
  34       14       32 1
  35       16       33 1
  36       16       34 1

@<TRIPOS>MOLECULE

  34   36
SMALL
USER_CHARGES
@<TRIPOS>ATOM
   1 O1           3.4788     1.7583     1.7583 O.2          1    LIG   0.0000
   2 S2           2.0450     2.0450     2.0450 S.o          1    LIG   0.0000
   3 C3           1.0000     1.0000     1.0000 C.3          1    LIG   0.0000
   4 C4           1.2919     1.2919    -0.4594 C.3          1    LIG   0.0000
   5 C5           0.5460     0.5460    -1.5215 C.3          1    LIG   0.0000
   6 C6           0.2223     1.9908    -1.2502 C.3          1    LIG   0.0000
   7 C7           1.6967     1.6967     3.7863 C.3          1    LIG   0.0000
   8 C8           0.4501     2.4573     4.2406 C.3          1    LIG   0.0000
   9 C9           0.5899     3.2795     5.5264 C.3          1    LIG   0.0000
  10 C10          1.4400     2.4742     6.4924 C.ar         1    LIG   0.0000
  11 C11          1.0645     2.3568     7.8262 C.ar         1    LIG   0.0000
  12 C12          1.8219     1.5872     8.7013 C.ar         1    LIG   0.0000
  13 C13          2.9659     0.9417     8.2474 C.ar         1    LIG   0.0000
  14 C14          3.3474     1.0704     6.9164 C.ar         1    LIG   0.0000
  15 C15          2.5873     1.8276     6.0352 C.ar         1    LIG   0.0000
  16 C16          2.9728     1.9494     4.5700 C.3          1    LIG   0.0000
  17 H            1.4920     0.7206     3.8588 H            1    LIG   0.0000
  18 H            0.0377     1.1925     1.1925 H            1    LIG   0.0000
  19 H            1.1925     0.0377     1.1925 H            1    LIG   0.0000
  20 H            2.2350     1.5424    -0.6778 H            1    LIG   0.0000
  21 H           -0.1055    -0.1686    -1.2666 H            1    LIG   0.0000
  22 H            1.0086     0.2881    -2.3697 H            1    LIG   0.0000
  23 H            0.4709     2.6933    -1.9170 H            1    LIG   0.0000
  24 H           -0.6432     2.2367    -0.8138 H            1    LIG   0.0000
  25 H           -0.2798     1.7888     4.3838 H            1    LIG   0.0000
  26 H            0.1896     3.0829     3.5052 H            1    LIG   0.0000
  27 H            1.0343     4.1528     5.3267 H            1    LIG   0.0000
  28 H           -0.3122     3.4478     5.9239 H            1    LIG   0.0000
  29 H            0.2467     2.8278     8.1569 H            1    LIG   0.0000
  30 H            1.5436     1.4980     9.6577 H            1    LIG   0.0000
  31 H            3.5122     0.3872     8.8751 H            1    LIG   0.0000
  32 H            4.1756     0.6140     6.5913 H            1    LIG   0.0000
  33 H            3.6669     1.2691     4.3345 H            1    LIG   0.0000
  34 H            3.3247     2.8653     4.3771 H            1    LIG   0.0000
@<TRIPOS>BOND
   1        1        2 2
   2        2        3 1
   3        3        4 1
   4        4        5 1
   5        5        6 1
   6        6        4 1
   7        2        7 1
   8        7        8 1
   9        8        9 1
  10        9       10 1
  11       10       11 ar
  12       11       12 ar
  13       12       13 ar
  14       13       14 ar
  15       14       15 ar
  16       15       10 ar
  17       15       16 1
  18       16        7 1
  19        7       17 1
  20        3       18 1
  21        3       19 1
  22        4       20 1
  23        5       21 1
  24        5       22 1
  25        6       23 1
  26        6       24 1
  27        8       25 1
  28        8       26 1
  29        9       27 1
  30        9       28 1
  31       11       29 1
  32       12       30 1
  33       13       31 1
  34       14       32 1
  35       16       33 1
  36       16       34 1

@<TRIPOS>MOLECULE

  34   36
SMALL
USER_CHARGES
@<TRIPOS>ATOM
   1 O1           3.4788     1.7583     1.7583 O.2          1    LIG   0.0000
   2 S2           2.0450     2.0450     2.0450 S.o          1    LIG   0.0000
   3 C3           1.0000     1.0000     1.0000 C.3          1    LIG   0.0000
   4 C4           1.2919     1.2919    -0.4594 C.3          1    LIG   0.0000
   5 C5           0.5460     0.5460    -1.5215 C.3          1    LIG   0.0000
   6 C6           0.2223     1.9908    -1.2502 C.3          1    LIG   0.0000
   7 C7           1.6967     1.6967     3.7863 C.3          1    LIG   0.0000
   8 C8           2.8764     2.1264     4.6597 C.3          1    LIG   0.0000
   9 C9           3.4022     1.0808     5.6491 C.3          1    LIG   0.0000
  10 C10          2.2012     0.3482     6.2195 C.ar         1    LIG   0.0000
  11 C11          2.1156     0.0996     7.5850 C.ar         1    LIG   0.0000
  12 C12          0.9976    -0.5364     8.1117 C.ar         1    LIG   0.0000
  13 C13         -0.0342    -0.9375     7.2716 C.ar         1    LIG   0.0000
  14 C14          0.0586    -0.6998     5.9046 C.ar         1    LIG   0.0000
  15 C15          1.1674    -0.0536     5.3750 C.ar         1    LIG   0.0000
  16 C16          1.2671     0.2437     3.8877 C.3          1    LIG   0.0000
  17 H            0.9120     2.2576     4.0502 H            1    LIG   0.0000
  18 H            0.0377     1.1925     1.1925 H            1    LIG   0.0000
  19 H            1.1925     0.0377     1.1925 H            1    LIG   0.0000
  20 H            2.2350     1.5424    -0.6778 H            1    LIG   0.0000
  21 H           -0.1055    -0.1686    -1.2666 H            1    LIG   0.0000
  22 H            1.0086     0.2881    -2.3697 H            1    LIG   0.0000
  23 H            0.4709     2.6933    -1.9170 H            1    LIG   0.0000
  24 H           -0.6432     2.2367    -0.8138 H            1    LIG   0.0000
  25 H            2.5907     2.9276     5.1856 H            1    LIG   0.0000
  26 H            3.6300     2.3778     4.0523 H            1    LIG   0.0000
  27 H            4.0031     0.4358     5.1771 H            1    LIG   0.0000
  28 H            3.9086     1.5310     6.3847 H            1    LIG   0.0000
  29 H            2.8610     0.3795     8.1900 H            1    LIG   0.0000
  30 H            0.9357    -0.7053     9.0954 H            1    LIG   0.0000
  31 H           -0.8396    -1.3950     7.6483 H            1    LIG   0.0000
  32 H           -0.6791    -0.9967     5.2983 H            1    LIG   0.0000
  33 H            0.3801     0.1108     3.4455 H            1    LIG   0.0000
  34 H            1.9463    -0.3514     3.4581 H            1    LIG   0.0000
@<TRIPOS>BOND
   1        1        2 2
   2        2        3 1
   3        3        4 1
   4        4        5 1
   5        5        6 1
   6        6        4 1
   7        2        7 1
   8        7        8 1
   9        8        9 1
  10        9       10 1
  11       10       11 ar
  12       11       12 ar
  13       12       13 ar
  14       13       14 ar
  15       14       15 ar
  16       15       10 ar
  17       15       16 1
  18       16        7 1
  19        7       17 1
  20        3       18 1
  21        3       19 1
  22        4       20 1
  23        5       21 1
  24        5       22 1
  25        6       23 1
  26        6       24 1
  27        8       25 1
  28        8       26 1
  29        9       27 1
  30        9       28 1
  31       11       29 1
  32       12       30 1
  33       13       31 1
  34       14       32 1
  35       16       33 1
  36       16       34 1

@<TRIPOS>MOLECULE

  34   36
SMALL
USER_CHARGES
@<TRIPOS>ATOM
   1 O1           3.4788     1.7583     1.7583 O.2          1    LIG   0.0000
   2 S2           2.0450     2.0450     2.0450 S.o          1    LIG   0.0000
   3 C3           1.0000     1.0000     1.0000 C.3          1    LIG   0.0000
   4 C4           1.2919     1.2919    -0.4594 C.3          1    LIG   0.0000
   5 C5           0.5460     0.5460    -1.5215 C.3          1    LIG   0.0000
   6 C6           0.2223     1.9908    -1.2502 C.3          1    LIG   0.0000
   7 C7           1.6959     1.6959     3.7906 C.3          1    LIG   0.0000
   8 C8           1.7327     2.9838     4.5918 C.3          1    LIG   0.0000
   9 C9           2.8385     3.0605     5.6364 C.3          1    LIG   0.0000
  10 C10          4.1134     2.4413     5.0783 C.ar         1    LIG   0.0000
  11 C11          5.3461     3.0716     5.2139 C.ar         1    LIG   0.0000
  12 C12          6.4794     2.4868     4.6557 C.ar         1    LIG   0.0000
  13 C13          6.3721     1.2767     3.9773 C.ar         1    LIG   0.0000
  14 C14          5.1442     0.6365     3.8497 C.ar         1    LIG   0.0000
  15 C15          4.0045     1.2341     4.3954 C.ar         1    LIG   0.0000
  16 C16          2.6427     0.5782     4.2177 C.3          1    LIG   0.0000
  17 H            0.7643     1.3363     3.8439 H            1    LIG   0.0000
  18 H            0.0377     1.1925     1.1925 H            1    LIG   0.0000
  19 H            1.1925     0.0377     1.1925 H            1    LIG   0.0000
  20 H            2.2350     1.5424    -0.6778 H            1    LIG   0.0000
  21 H           -0.1055    -0.1686    -1.2666 H            1    LIG   0.0000
  22 H            1.0086     0.2881    -2.3697 H            1    LIG   0.0000
  23 H            0.4709     2.6933    -1.9170 H            1    LIG   0.0000
  24 H           -0.6432     2.2367    -0.8138 H            1    LIG   0.0000
  25 H            0.8552     3.0824     5.0611 H            1    LIG   0.0000
  26 H            1.8562     3.7431     3.9529 H            1    LIG   0.0000
  27 H            3.0086     4.0176     5.8711 H            1    LIG   0.0000
  28 H            2.5573     2.5612     6.4559 H            1    LIG   0.0000
  29 H            5.4175     3.9378     5.7084 H            1    LIG   0.0000
  30 H            7.3688     2.9356     4.7420 H            1    LIG   0.0000
  31 H            7.1889     0.8619     3.5762 H            1    LIG   0.0000
  32 H            5.0774    -0.2403     3.3735 H            1    LIG   0.0000
  33 H            2.3365     0.1725     5.0789 H            1    LIG   0.0000
  34 H            2.6864    -0.1296     3.5127 H            1    LIG   0.0000
@<TRIPOS>BOND
   1        1        2 2
   2        2        3 1
   3        3        4 1
   4        4        5 1
   5        5        6 1
   6        6        4 1
   7        2        7 1
   8        7        8 1
   9        8        9 1
  10        9       10 1
  11       10       11 ar
  12       11       12 ar
  13       12       13 ar
  14       13       14 ar
  15       14       15 ar
  16       15       10 ar
  17       15       16 1
  18       16        7 1
  19        7       17 1
  20        3       18 1
  21        3       19 1
  22        4       20 1
  23        5       21 1
  24        5       22 1
  25        6       23 1
  26        6       24 1
  27        8       25 1
  28        8       26 1
  29        9       27 1
  30        9       28 1
  31       11       29 1
  32       12       30 1
  33       13       31 1
  34       14       32 1
  35       16       33 1
  36       16       34 1

@<TRIPOS>MOLECULE

  34   36
SMALL
USER_CHARGES
@<TRIPOS>ATOM
   1 O1           3.4788     1.7583     1.7583 O.2          1    LIG   0.0000
   2 S2           2.0450     2.0450     2.0450 S.o          1    LIG   0.0000
   3 C3           1.0000     1.0000     1.0000 C.3          1    LIG   0.0000
   4 C4           1.2919     1.2919    -0.4594 C.3          1    LIG   0.0000
   5 C5           0.5460     0.5460    -1.5215 C.3          1    LIG   0.0000
   6 C6           0.2223     1.9908    -1.2502 C.3          1    LIG   0.0000
   7 C7           1.6959     1.6959     3.7906 C.3          1    LIG   0.0000
   8 C8           2.8715     2.1260     4.6480 C.3          1    LIG   0.0000
   9 C9           3.5875     0.9939     5.3728 C.3          1    LIG   0.0000
  10 C10          3.6798    -0.2213     4.4590 C.ar         1    LIG   0.0000
  11 C11          4.8659    -0.9340     4.3168 C.ar         1    LIG   0.0000
  12 C12          4.9141    -2.0159     3.4420 C.ar         1    LIG   0.0000
  13 C13          3.7774    -2.3801     2.7269 C.ar         1    LIG   0.0000
  14 C14          2.5858    -1.6785     2.8750 C.ar         1    LIG   0.0000
  15 C15          2.5444    -0.5814     3.7403 C.ar         1    LIG   0.0000
  16 C16          1.2664     0.2342     3.8736 C.3          1    LIG   0.0000
  17 H            0.9104     2.2547     4.0568 H            1    LIG   0.0000
  18 H            0.0377     1.1925     1.1925 H            1    LIG   0.0000
  19 H            1.1925     0.0377     1.1925 H            1    LIG   0.0000
  20 H            2.2350     1.5424    -0.6778 H            1    LIG   0.0000
  21 H           -0.1055    -0.1686    -1.2666 H            1    LIG   0.0000
  22 H            1.0086     0.2881    -2.3697 H            1    LIG   0.0000
  23 H            0.4709     2.6933    -1.9170 H            1    LIG   0.0000
  24 H           -0.6432     2.2367    -0.8138 H            1    LIG   0.0000
  25 H            2.5352     2.7704     5.3347 H            1    LIG   0.0000
  26 H            3.5350     2.5847     4.0570 H            1    LIG   0.0000
  27 H            4.5084     1.2907     5.6257 H            1    LIG   0.0000
  28 H            3.0771     0.7517     6.1979 H            1    LIG   0.0000
  29 H            5.6775    -0.6713     4.8386 H            1    LIG   0.0000
  30 H            5.7639    -2.5304     3.3279 H            1    LIG   0.0000
  31 H            3.8178    -3.1567     2.0982 H            1    LIG   0.0000
  32 H            1.7690    -1.9553     2.3689 H            1    LIG   0.0000
  33 H            0.8258     0.0500     4.7522 H            1    LIG   0.0000
  34 H            0.6339     0.0143     3.1309 H            1    LIG   0.0000
@<TRIPOS>BOND
   1        1        2 2
   2        2        3 1
   3        3        4 1
   4        4        5 1
   5        5        6 1
   6        6        4 1
   7        2        7 1
   8        7        8 1
   9        8        9 1
  10        9       10 1
  11       10       11 ar
  12       11       12 ar
  13       12       13 ar
  14       13       14 ar
  15       14       15 ar
  16       15       10 ar
  17       15       16 1
  18       16        7 1
  19        7       17 1
  20        3       18 1
  21        3       19 1
  22        4       20 1
  23        5       21 1
  24        5       22 1
  25        6       23 1
  26        6       24 1
  27        8       25 1
  28        8       26 1
  29        9       27 1
  30        9       28 1
  31       11       29 1
  32       12       30 1
  33       13       31 1
  34       14       32 1
  35       16       33 1
  36       16       34 1

@<TRIPOS>MOLECULE

  34   36
SMALL
USER_CHARGES
@<TRIPOS>ATOM
   1 O1           3.3251     2.3318     1.3384 O.2          1    LIG   0.0000
   2 S2           2.0450     2.0450     2.0450 S.o          1    LIG   0.0000
   3 C3           1.0000     1.0000     1.0000 C.3          1    LIG   0.0000
   4 C4           1.2919     1.2919    -0.4594 C.3          1    LIG   0.0000
   5 C5           0.5460     0.5460    -1.5215 C.3          1    LIG   0.0000
   6 C6           0.2223     1.9908    -1.2502 C.3          1    LIG   0.0000
   7 C7           2.3941     1.1847     3.6035 C.3          1    LIG   0.0000
   8 C8           2.6064    -0.2943     3.3402 C.3          1    LIG   0.0000
   9 C9           1.5692    -1.2153     3.9692 C.3          1    LIG   0.0000
  10 C10          0.1878    -0.5836     3.8554 C.ar         1    LIG   0.0000
  11 C11         -0.9139    -1.3191     3.4308 C.ar         1    LIG   0.0000
  12 C12         -2.1500    -0.6910     3.3063 C.ar         1    LIG   0.0000
  13 C13         -2.2752     0.6599     3.6152 C.ar         1    LIG   0.0000
  14 C14         -1.1795     1.3966     4.0520 C.ar         1    LIG   0.0000
  15 C15          0.0646     0.7684     4.1592 C.ar         1    LIG   0.0000
  16 C16          1.2876     1.5702     4.5808 C.3          1    LIG   0.0000
  17 H            3.2524     1.5514     3.9626 H            1    LIG   0.0000
  18 H            0.0377     1.1925     1.1925 H            1    LIG   0.0000
  19 H            1.1925     0.0377     1.1925 H            1    LIG   0.0000
  20 H            2.2350     1.5424    -0.6778 H            1    LIG   0.0000
  21 H           -0.1055    -0.1686    -1.2666 H            1    LIG   0.0000
  22 H            1.0086     0.2881    -2.3697 H            1    LIG   0.0000
  23 H            0.4709     2.6933    -1.9170 H            1    LIG   0.0000
  24 H           -0.6432     2.2367    -0.8138 H            1    LIG   0.0000
  25 H            3.5046    -0.5476     3.6993 H            1    LIG   0.0000
  26 H            2.5901    -0.4387     2.3508 H            1    LIG   0.0000
  27 H            1.5730    -2.0948     3.4933 H            1    LIG   0.0000
  28 H            1.7916    -1.3573     4.9337 H            1    LIG   0.0000
  29 H           -0.8187    -2.2913     3.2167 H            1    LIG   0.0000
  30 H           -2.9465    -1.2096     2.9954 H            1    LIG   0.0000
  31 H           -3.1648     1.1070     3.5220 H            1    LIG   0.0000
  32 H           -1.2804     2.3635     4.2864 H            1    LIG   0.0000
  33 H            1.5521     1.3360     5.5163 H            1    LIG   0.0000
  34 H            1.0982     2.5504     4.5234 H            1    LIG   0.0000
@<TRIPOS>BOND
   1        1        2 2
   2        2        3 1
   3        3        4 1
   4        4        5 1
   5        5        6 1
   6        6        4 1
   7        2        7 1
   8        7        8 1
   9        8        9 1
  10        9       10 1
  11       10       11 ar
  12       11       12 ar
  13       12       13 ar
  14       13       14 ar
  15       14       15 ar
  16       15       10 ar
  17       15       16 1
  18       16        7 1
  19        7       17 1
  20        3       18 1
  21        3       19 1
  22        4       20 1
  23        5       21 1
  24        5       22 1
  25        6       23 1
  26        6       24 1
  27        8       25 1
  28        8       26 1
  29        9       27 1
  30        9       28 1
  31       11       29 1
  32       12       30 1
  33       13       31 1
  34       14       32 1
  35       16       33 1
  36       16       34 1

@<TRIPOS>MOLECULE

  34   36
SMALL
USER_CHARGES
@<TRIPOS>ATOM
   1 O1           3.3251     1.3384     2.3318 O.2          1    LIG   0.0000
   2 S2           2.0450     2.0450     2.0450 S.o          1    LIG   0.0000
   3 C3           1.0000     1.0000     1.0000 C.3          1    LIG   0.0000
   4 C4           1.2919     1.2919    -0.4594 C.3          1    LIG   0.0000
   5 C5           0.5460     0.5460    -1.5215 C.3          1    LIG   0.0000
   6 C6           0.2223     1.9908    -1.2502 C.3          1    LIG   0.0000
   7 C7           1.1866     2.3934     3.6001 C.3          1    LIG   0.0000
   8 C8          -0.3261     2.3882     3.4556 C.3          1    LIG   0.0000
   9 C9          -0.7115     3.3010     2.3033 C.3          1    LIG   0.0000
  10 C10         -0.0794     4.6757     2.4732 C.ar         1    LIG   0.0000
  11 C11         -0.6212     5.7232     1.7353 C.ar         1    LIG   0.0000
  12 C12         -0.0566     6.9888     1.8516 C.ar         1    LIG   0.0000
  13 C13          1.0304     7.1895     2.6967 C.ar         1    LIG   0.0000
  14 C14          1.5572     6.1320     3.4307 C.ar         1    LIG   0.0000
  15 C15          1.0034     4.8653     3.3329 C.ar         1    LIG   0.0000
  16 C16          1.5806     3.7441     4.1800 C.3          1    LIG   0.0000
  17 H            1.4387     1.6857     4.2602 H            1    LIG   0.0000
  18 H            0.0377     1.1925     1.1925 H            1    LIG   0.0000
  19 H            1.1925     0.0377     1.1925 H            1    LIG   0.0000
  20 H            2.2350     1.5424    -0.6778 H            1    LIG   0.0000
  21 H           -0.1055    -0.1686    -1.2666 H            1    LIG   0.0000
  22 H            1.0086     0.2881    -2.3697 H            1    LIG   0.0000
  23 H            0.4709     2.6933    -1.9170 H            1    LIG   0.0000
  24 H           -0.6432     2.2367    -0.8138 H            1    LIG   0.0000
  25 H           -0.7456     2.7188     4.3010 H            1    LIG   0.0000
  26 H           -0.6426     1.4583     3.2680 H            1    LIG   0.0000
  27 H           -0.3949     2.8977     1.4447 H            1    LIG   0.0000
  28 H           -1.7065     3.3976     2.2793 H            1    LIG   0.0000
  29 H           -1.4033     5.5687     1.1315 H            1    LIG   0.0000
  30 H           -0.4315     7.7540     1.3283 H            1    LIG   0.0000
  31 H            1.4356     8.1002     2.7768 H            1    LIG   0.0000
  32 H            2.3404     6.2867     4.0329 H            1    LIG   0.0000
  33 H            1.2277     3.8191     5.1127 H            1    LIG   0.0000
  34 H            2.5777     3.8198     4.1938 H            1    LIG   0.0000
@<TRIPOS>BOND
   1        1        2 2
   2        2        3 1
   3        3        4 1
   4        4        5 1
   5        5        6 1
   6        6        4 1
   7        2        7 1
   8        7        8 1
   9        8        9 1
  10        9       10 1
  11       10       11 ar
  12       11       12 ar
  13       12       13 ar
  14       13       14 ar
  15       14       15 ar
  16       15       10 ar
  17       15       16 1
  18       16        7 1
  19        7       17 1
  20        3       18 1
  21        3       19 1
  22        4       20 1
  23        5       21 1
  24        5       22 1
  25        6       23 1
  26        6       24 1
  27        8       25 1
  28        8       26 1
  29        9       27 1
  30        9       28 1
  31       11       29 1
  32       12       30 1
  33       13       31 1
  34       14       32 1
  35       16       33 1
  36       16       34 1

@<TRIPOS>MOLECULE

  34   36
SMALL
USER_CHARGES
@<TRIPOS>ATOM
   1 O1           3.3251     1.3384     2.3318 O.2          1    LIG   0.0000
   2 S2           2.0450     2.0450     2.0450 S.o          1    LIG   0.0000
   3 C3           1.0000     1.0000     1.0000 C.3          1    LIG   0.0000
   4 C4           1.2919     1.2919    -0.4594 C.3          1    LIG   0.0000
   5 C5           0.5460     0.5460    -1.5215 C.3          1    LIG   0.0000
   6 C6           0.2223     1.9908    -1.2502 C.3          1    LIG   0.0000
   7 C7           1.1869     2.3933     3.5997 C.3          1    LIG   0.0000
   8 C8           0.4201     1.1568     4.0712 C.3          1    LIG   0.0000
   9 C9          -1.0532     1.3717     4.4344 C.3          1    LIG   0.0000
  10 C10         -1.1563     2.7062     5.1505 C.ar         1    LIG   0.0000
  11 C11         -1.9165     2.8230     6.3090 C.ar         1    LIG   0.0000
  12 C12         -1.9788     4.0353     6.9860 C.ar         1    LIG   0.0000
  13 C13         -1.2901     5.1397     6.4987 C.ar         1    LIG   0.0000
  14 C14         -0.5406     5.0249     5.3330 C.ar         1    LIG   0.0000
  15 C15         -0.4648     3.8129     4.6601 C.ar         1    LIG   0.0000
  16 C16          0.3779     3.6635     3.4039 C.3          1    LIG   0.0000
  17 H            1.8859     2.5894     4.2873 H            1    LIG   0.0000
  18 H            0.0377     1.1925     1.1925 H            1    LIG   0.0000
  19 H            1.1925     0.0377     1.1925 H            1    LIG   0.0000
  20 H            2.2350     1.5424    -0.6778 H            1    LIG   0.0000
  21 H           -0.1055    -0.1686    -1.2666 H            1    LIG   0.0000
  22 H            1.0086     0.2881    -2.3697 H            1    LIG   0.0000
  23 H            0.4709     2.6933    -1.9170 H            1    LIG   0.0000
  24 H           -0.6432     2.2367    -0.8138 H            1    LIG   0.0000
  25 H            0.8852     0.8001     4.8814 H            1    LIG   0.0000
  26 H            0.4577     0.4769     3.3388 H            1    LIG   0.0000
  27 H           -1.6110     1.3855     3.6046 H            1    LIG   0.0000
  28 H           -1.3675     0.6367     5.0352 H            1    LIG   0.0000
  29 H           -2.4200     2.0319     6.6564 H            1    LIG   0.0000
  30 H           -2.5194     4.1129     7.8237 H            1    LIG   0.0000
  31 H           -1.3332     6.0128     6.9842 H            1    LIG   0.0000
  32 H           -0.0525     5.8216     4.9766 H            1    LIG   0.0000
  33 H            0.9854     4.4505     3.2961 H            1    LIG   0.0000
  34 H           -0.2088     3.5824     2.5982 H            1    LIG   0.0000
@<TRIPOS>BOND
   1        1        2 2
   2        2        3 1
   3        3        4 1
   4        4        5 1
   5        5        6 1
   6        6        4 1
   7        2        7 1
   8        7        8 1
   9        8        9 1
  10        9       10 1
  11       10       11 ar
  12       11       12 ar
  13       12       13 ar
  14       13       14 ar
  15       14       15 ar
  16       15       10 ar
  17       15       16 1
  18       16        7 1
  19        7       17 1
  20        3       18 1
  21        3       19 1
  22        4       20 1
  23        5       21 1
  24        5       22 1
  25        6       23 1
  26        6       24 1
  27        8       25 1
  28        8       26 1
  29        9       27 1
  30        9       28 1
  31       11       29 1
  32       12       30 1
  33       13       31 1
  34       14       32 1
  35       16       33 1
  36       16       34 1

@<TRIPOS>MOLECULE

  34   36
SMALL
USER_CHARGES
@<TRIPOS>ATOM
   1 O1           3.3251     1.3384     2.3318 O.2          1    LIG   0.0000
   2 S2           2.0450     2.0450     2.0450 S.o          1    LIG   0.0000
   3 C3           1.0000     1.0000     1.0000 C.3          1    LIG   0.0000
   4 C4           1.2919     1.2919    -0.4594 C.3          1    LIG   0.0000
   5 C5           0.5460     0.5460    -1.5215 C.3          1    LIG   0.0000
   6 C6           0.2223     1.9908    -1.2502 C.3          1    LIG   0.0000
   7 C7           1.1847     2.3941     3.6035 C.3          1    LIG   0.0000
   8 C8           1.0701     1.1239     4.4254 C.3          1    LIG   0.0000
   9 C9          -0.3530     0.6322     4.6551 C.3          1    LIG   0.0000
  10 C10         -1.1731     0.8283     3.3865 C.ar         1    LIG   0.0000
  11 C11         -1.9966    -0.1778     2.8919 C.ar         1    LIG   0.0000
  12 C12         -2.6995     0.0322     1.7088 C.ar         1    LIG   0.0000
  13 C13         -2.5804     1.2454     1.0380 C.ar         1    LIG   0.0000
  14 C14         -1.7681     2.2589     1.5349 C.ar         1    LIG   0.0000
  15 C15         -1.0493     2.0395     2.7135 C.ar         1    LIG   0.0000
  16 C16         -0.1112     3.1145     3.2434 C.3          1    LIG   0.0000
  17 H            1.7506     3.0360     4.1210 H            1    LIG   0.0000
  18 H            0.0377     1.1925     1.1925 H            1    LIG   0.0000
  19 H            1.1925     0.0377     1.1925 H            1    LIG   0.0000
  20 H            2.2350     1.5424    -0.6778 H            1    LIG   0.0000
  21 H           -0.1055    -0.1686    -1.2666 H            1    LIG   0.0000
  22 H            1.0086     0.2881    -2.3697 H            1    LIG   0.0000
  23 H            0.4709     2.6933    -1.9170 H            1    LIG   0.0000
  24 H           -0.6432     2.2367    -0.8138 H            1    LIG   0.0000
  25 H            1.4877     1.2933     5.3181 H            1    LIG   0.0000
  26 H            1.5753     0.4019     3.9527 H            1    LIG   0.0000
  27 H           -0.3351    -0.3389     4.8929 H            1    LIG   0.0000
  28 H           -0.7676     1.1509     5.4028 H            1    LIG   0.0000
  29 H           -2.0830    -1.0450     3.3823 H            1    LIG   0.0000
  30 H           -3.2888    -0.6875     1.3417 H            1    LIG   0.0000
  31 H           -3.0857     1.3905     0.1873 H            1    LIG   0.0000
  32 H           -1.6991     3.1336     1.0551 H            1    LIG   0.0000
  33 H           -0.5036     3.5509     4.0531 H            1    LIG   0.0000
  34 H            0.0582     3.8059     2.5412 H            1    LIG   0.0000
@<TRIPOS>BOND
   1        1        2 2
   2        2        3 1
   3        3        4 1
   4        4        5 1
   5        5        6 1
   6        6        4 1
   7        2        7 1
   8        7        8 1
   9        8        9 1
  10        9       10 1
  11       10       11 ar
  12       11       12 ar
  13       12       13 ar
  14       13       14 ar
  15       14       15 ar
  16       15       10 ar
  17       15       16 1
  18       16        7 1
  19        7       17 1
  20        3       18 1
  21        3       19 1
  22        4       20 1
  23        5       21 1
  24        5       22 1
  25        6       23 1
  26        6       24 1
  27        8       25 1
  28        8       26 1
  29        9       27 1
  30        9       28 1
  31       11       29 1
  32       12       30 1
  33       13       31 1
  34       14       32 1
  35       16       33 1
  36       16       34 1

