@<TRIPOS>MOLECULE
*****
 34 36 0 0 0
SMALL
USER_CHARGES

@<TRIPOS>ATOM
      1 O1          3.4788    1.7583    1.7583 O.2     1  LIG1        0.0000
      2 S2          2.0450    2.0450    2.0450 S.O     1  LIG1        0.0000
      3 C3          1.0000    1.0000    1.0000 C.3     1  LIG1        0.0000
      4 C4          1.2919    1.2919   -0.4594 C.3     1  LIG1        0.0000
      5 C5          0.5460    0.5460   -1.5215 C.3     1  LIG1        0.0000
      6 C6          0.2223    1.9908   -1.2502 C.3     1  LIG1        0.0000
      7 C7          1.6959    1.6959    3.7906 C.3     1  LIG1        0.0000
      8 C8          1.7327    2.9838    4.5918 C.3     1  LIG1        0.0000
      9 C9          2.8385    3.0605    5.6364 C.3     1  LIG1        0.0000
     10 C10         4.1134    2.4413    5.0783 C.3     1  LIG1        0.0000
     11 C11         5.3461    3.0716    5.2139 C.3     1  LIG1        0.0000
     12 C12         6.4794    2.4868    4.6557 C.3     1  LIG1        0.0000
     13 C13         6.3721    1.2767    3.9773 C.3     1  LIG1        0.0000
     14 C14         5.1442    0.6365    3.8497 C.3     1  LIG1        0.0000
     15 C15         4.0045    1.2341    4.3954 C.3     1  LIG1        0.0000
     16 C16         2.6427    0.5782    4.2177 C.3     1  LIG1        0.0000
     17 H           0.7643    1.3363    3.8439 H       1  LIG1        0.0000
     18 H           0.0377    1.1925    1.1925 H       1  LIG1        0.0000
     19 H           1.1925    0.0377    1.1925 H       1  LIG1        0.0000
     20 H           2.2350    1.5424   -0.6778 H       1  LIG1        0.0000
     21 H          -0.1055   -0.1686   -1.2666 H       1  LIG1        0.0000
     22 H           1.0086    0.2881   -2.3697 H       1  LIG1        0.0000
     23 H           0.4709    2.6933   -1.9170 H       1  LIG1        0.0000
     24 H          -0.6432    2.2367   -0.8138 H       1  LIG1        0.0000
     25 H           0.8552    3.0824    5.0611 H       1  LIG1        0.0000
     26 H           1.8562    3.7431    3.9529 H       1  LIG1        0.0000
     27 H           3.0086    4.0176    5.8711 H       1  LIG1        0.0000
     28 H           2.5573    2.5612    6.4559 H       1  LIG1        0.0000
     29 H           5.4175    3.9378    5.7084 H       1  LIG1        0.0000
     30 H           7.3688    2.9356    4.7420 H       1  LIG1        0.0000
     31 H           7.1889    0.8619    3.5762 H       1  LIG1        0.0000
     32 H           5.0774   -0.2403    3.3735 H       1  LIG1        0.0000
     33 H           2.3365    0.1725    5.0789 H       1  LIG1        0.0000
     34 H           2.6864   -0.1296    3.5127 H       1  LIG1        0.0000
@<TRIPOS>BOND
     1     1     2    2
     2     2     3    1
     3     3     4    1
     4     4     5    1
     5     5     6    1
     6     6     4    1
     7     2     7    1
     8     7     8    1
     9     8     9    1
    10     9    10    1
    11    10    11   ar
    12    11    12   ar
    13    12    13   ar
    14    13    14   ar
    15    14    15   ar
    16    15    10   ar
    17    15    16    1
    18    16     7    1
    19     7    17    1
    20     3    18    1
    21     3    19    1
    22     4    20    1
    23     5    21    1
    24     5    22    1
    25     6    23    1
    26     6    24    1
    27     8    25    1
    28     8    26    1
    29     9    27    1
    30     9    28    1
    31    11    29    1
    32    12    30    1
    33    13    31    1
    34    14    32    1
    35    16    33    1
    36    16    34    1
