@<TRIPOS>MOLECULE
*****
 34 36 0 0 0
SMALL
USER_CHARGES

@<TRIPOS>ATOM
      1 O1          3.4788    1.7583    1.7583 O.2     1  LIG1        0.0000
      2 S2          2.0450    2.0450    2.0450 S.O     1  LIG1        0.0000
      3 C3          1.0000    1.0000    1.0000 C.3     1  LIG1        0.0000
      4 C4          1.2919    1.2919   -0.4594 C.3     1  LIG1        0.0000
      5 C5          0.5460    0.5460   -1.5215 C.3     1  LIG1        0.0000
      6 C6          0.2223    1.9908   -1.2502 C.3     1  LIG1        0.0000
      7 C7          1.6966    1.6966    3.7868 C.3     1  LIG1        0.0000
      8 C8          0.2298    1.9758    4.0774 C.3     1  LIG1        0.0000
      9 C9         -0.0861    1.5697    5.5114 C.3     1  LIG1        0.0000
     10 C10         0.9205    2.1117    6.5137 C.3     1  LIG1        0.0000
     11 C11         0.5419    2.1351    7.8553 C.3     1  LIG1        0.0000
     12 C12         1.4408    2.5980    8.8128 C.3     1  LIG1        0.0000
     13 C13         2.7060    3.0327    8.4308 C.3     1  LIG1        0.0000
     14 C14         3.0598    3.0060    7.0863 C.3     1  LIG1        0.0000
     15 C15         2.1741    2.5564    6.1091 C.3     1  LIG1        0.0000
     16 C16         2.5855    2.5855    4.6430 C.3     1  LIG1        0.0000
     17 H           1.8983    0.7368    3.9817 H       1  LIG1        0.0000
     18 H           0.0377    1.1925    1.1925 H       1  LIG1        0.0000
     19 H           1.1925    0.0377    1.1925 H       1  LIG1        0.0000
     20 H           2.2350    1.5424   -0.6778 H       1  LIG1        0.0000
     21 H          -0.1055   -0.1686   -1.2666 H       1  LIG1        0.0000
     22 H           1.0086    0.2881   -2.3697 H       1  LIG1        0.0000
     23 H           0.4709    2.6933   -1.9170 H       1  LIG1        0.0000
     24 H          -0.6432    2.2367   -0.8138 H       1  LIG1        0.0000
     25 H          -0.3415    1.4494    3.4477 H       1  LIG1        0.0000
     26 H           0.0455    2.9515    3.9583 H       1  LIG1        0.0000
     27 H          -0.9929    1.9177    5.7495 H       1  LIG1        0.0000
     28 H          -0.0870    0.5713    5.5678 H       1  LIG1        0.0000
     29 H          -0.3679    1.8220    8.1278 H       1  LIG1        0.0000
     30 H           1.1764    2.6180    9.7770 H       1  LIG1        0.0000
     31 H           3.3550    3.3614    9.1169 H       1  LIG1        0.0000
     32 H           3.9707    3.3166    6.8145 H       1  LIG1        0.0000
     33 H           3.5306    2.2678    4.5661 H       1  LIG1        0.0000
     34 H           2.5216    3.5255    4.3079 H       1  LIG1        0.0000
@<TRIPOS>BOND
     1     1     2    2
     2     2     3    1
     3     3     4    1
     4     4     5    1
     5     5     6    1
     6     6     4    1
     7     2     7    1
     8     7     8    1
     9     8     9    1
    10     9    10    1
    11    10    11   ar
    12    11    12   ar
    13    12    13   ar
    14    13    14   ar
    15    14    15   ar
    16    15    10   ar
    17    15    16    1
    18    16     7    1
    19     7    17    1
    20     3    18    1
    21     3    19    1
    22     4    20    1
    23     5    21    1
    24     5    22    1
    25     6    23    1
    26     6    24    1
    27     8    25    1
    28     8    26    1
    29     9    27    1
    30     9    28    1
    31    11    29    1
    32    12    30    1
    33    13    31    1
    34    14    32    1
    35    16    33    1
    36    16    34    1
