@<TRIPOS>MOLECULE
*****
 34 36 0 0 0
SMALL
USER_CHARGES

@<TRIPOS>ATOM
      1 O1          3.3251    1.3384    2.3318 O.2     1  LIG1        0.0000
      2 S2          2.0450    2.0450    2.0450 S.O     1  LIG1        0.0000
      3 C3          1.0000    1.0000    1.0000 C.3     1  LIG1        0.0000
      4 C4          1.2919    1.2919   -0.4594 C.3     1  LIG1        0.0000
      5 C5          0.5460    0.5460   -1.5215 C.3     1  LIG1        0.0000
      6 C6          0.2223    1.9908   -1.2502 C.3     1  LIG1        0.0000
      7 C7          1.1866    2.3934    3.6001 C.3     1  LIG1        0.0000
      8 C8         -0.3261    2.3882    3.4556 C.3     1  LIG1        0.0000
      9 C9         -0.7115    3.3010    2.3033 C.3     1  LIG1        0.0000
     10 C10        -0.0794    4.6757    2.4732 C.3     1  LIG1        0.0000
     11 C11        -0.6212    5.7232    1.7353 C.3     1  LIG1        0.0000
     12 C12        -0.0566    6.9888    1.8516 C.3     1  LIG1        0.0000
     13 C13         1.0304    7.1895    2.6967 C.3     1  LIG1        0.0000
     14 C14         1.5572    6.1320    3.4307 C.3     1  LIG1        0.0000
     15 C15         1.0034    4.8653    3.3329 C.3     1  LIG1        0.0000
     16 C16         1.5806    3.7441    4.1800 C.3     1  LIG1        0.0000
     17 H           1.4387    1.6857    4.2602 H       1  LIG1        0.0000
     18 H           0.0377    1.1925    1.1925 H       1  LIG1        0.0000
     19 H           1.1925    0.0377    1.1925 H       1  LIG1        0.0000
     20 H           2.2350    1.5424   -0.6778 H       1  LIG1        0.0000
     21 H          -0.1055   -0.1686   -1.2666 H       1  LIG1        0.0000
     22 H           1.0086    0.2881   -2.3697 H       1  LIG1        0.0000
     23 H           0.4709    2.6933   -1.9170 H       1  LIG1        0.0000
     24 H          -0.6432    2.2367   -0.8138 H       1  LIG1        0.0000
     25 H          -0.7456    2.7188    4.3010 H       1  LIG1        0.0000
     26 H          -0.6426    1.4583    3.2680 H       1  LIG1        0.0000
     27 H          -0.3949    2.8977    1.4447 H       1  LIG1        0.0000
     28 H          -1.7065    3.3976    2.2793 H       1  LIG1        0.0000
     29 H          -1.4033    5.5687    1.1315 H       1  LIG1        0.0000
     30 H          -0.4315    7.7540    1.3283 H       1  LIG1        0.0000
     31 H           1.4356    8.1002    2.7768 H       1  LIG1        0.0000
     32 H           2.3404    6.2867    4.0329 H       1  LIG1        0.0000
     33 H           1.2277    3.8191    5.1127 H       1  LIG1        0.0000
     34 H           2.5777    3.8198    4.1938 H       1  LIG1        0.0000
@<TRIPOS>BOND
     1     1     2    2
     2     2     3    1
     3     3     4    1
     4     4     5    1
     5     5     6    1
     6     6     4    1
     7     2     7    1
     8     7     8    1
     9     8     9    1
    10     9    10    1
    11    10    11   ar
    12    11    12   ar
    13    12    13   ar
    14    13    14   ar
    15    14    15   ar
    16    15    10   ar
    17    15    16    1
    18    16     7    1
    19     7    17    1
    20     3    18    1
    21     3    19    1
    22     4    20    1
    23     5    21    1
    24     5    22    1
    25     6    23    1
    26     6    24    1
    27     8    25    1
    28     8    26    1
    29     9    27    1
    30     9    28    1
    31    11    29    1
    32    12    30    1
    33    13    31    1
    34    14    32    1
    35    16    33    1
    36    16    34    1
