@<TRIPOS>MOLECULE
*****
 34 36 0 0 0
SMALL
USER_CHARGES

@<TRIPOS>ATOM
      1 O1          3.4788    1.7583    1.7583 O.2     1  LIG1        0.0000
      2 S2          2.0450    2.0450    2.0450 S.O     1  LIG1        0.0000
      3 C3          1.0000    1.0000    1.0000 C.3     1  LIG1        0.0000
      4 C4          1.2919    1.2919   -0.4594 C.3     1  LIG1        0.0000
      5 C5          0.5460    0.5460   -1.5215 C.3     1  LIG1        0.0000
      6 C6          0.2223    1.9908   -1.2502 C.3     1  LIG1        0.0000
      7 C7          1.6966    1.6966    3.7868 C.3     1  LIG1        0.0000
      8 C8          2.5124    2.5569    4.7374 C.3     1  LIG1        0.0000
      9 C9          3.9794    2.4550    4.3541 C.3     1  LIG1        0.0000
     10 C10         4.4105    0.9975    4.2640 C.3     1  LIG1        0.0000
     11 C11         5.7756    0.7319    4.3016 C.3     1  LIG1        0.0000
     12 C12         6.2059   -0.5869    4.2026 C.3     1  LIG1        0.0000
     13 C13         5.2757   -1.6130    4.0702 C.3     1  LIG1        0.0000
     14 C14         3.9142   -1.3304    4.0388 C.3     1  LIG1        0.0000
     15 C15         3.4663   -0.0229    4.1429 C.3     1  LIG1        0.0000
     16 C16         1.9706    0.2430    4.1446 C.3     1  LIG1        0.0000
     17 H           0.7280    1.8810    3.9535 H       1  LIG1        0.0000
     18 H           0.0377    1.1925    1.1925 H       1  LIG1        0.0000
     19 H           1.1925    0.0377    1.1925 H       1  LIG1        0.0000
     20 H           2.2350    1.5424   -0.6778 H       1  LIG1        0.0000
     21 H          -0.1055   -0.1686   -1.2666 H       1  LIG1        0.0000
     22 H           1.0086    0.2881   -2.3697 H       1  LIG1        0.0000
     23 H           0.4709    2.6933   -1.9170 H       1  LIG1        0.0000
     24 H          -0.6432    2.2367   -0.8138 H       1  LIG1        0.0000
     25 H           2.3868    2.2332    5.6752 H       1  LIG1        0.0000
     26 H           2.2129    3.5086    4.6704 H       1  LIG1        0.0000
     27 H           4.1184    2.8942    3.4666 H       1  LIG1        0.0000
     28 H           4.5327    2.9190    5.0459 H       1  LIG1        0.0000
     29 H           6.4361    1.4765    4.3981 H       1  LIG1        0.0000
     30 H           7.1832   -0.7975    4.2266 H       1  LIG1        0.0000
     31 H           5.5880   -2.5602    3.9973 H       1  LIG1        0.0000
     32 H           3.2542   -2.0752    3.9404 H       1  LIG1        0.0000
     33 H           1.6017    0.0512    5.0541 H       1  LIG1        0.0000
     34 H           1.5283   -0.3517    3.4733 H       1  LIG1        0.0000
@<TRIPOS>BOND
     1     1     2    2
     2     2     3    1
     3     3     4    1
     4     4     5    1
     5     5     6    1
     6     6     4    1
     7     2     7    1
     8     7     8    1
     9     8     9    1
    10     9    10    1
    11    10    11   ar
    12    11    12   ar
    13    12    13   ar
    14    13    14   ar
    15    14    15   ar
    16    15    10   ar
    17    15    16    1
    18    16     7    1
    19     7    17    1
    20     3    18    1
    21     3    19    1
    22     4    20    1
    23     5    21    1
    24     5    22    1
    25     6    23    1
    26     6    24    1
    27     8    25    1
    28     8    26    1
    29     9    27    1
    30     9    28    1
    31    11    29    1
    32    12    30    1
    33    13    31    1
    34    14    32    1
    35    16    33    1
    36    16    34    1
