@<TRIPOS>MOLECULE
*****
 34 36 0 0 0
SMALL
USER_CHARGES

@<TRIPOS>ATOM
      1 O1          3.4788    1.7583    1.7583 O.2     1  LIG1        0.0000
      2 S2          2.0450    2.0450    2.0450 S.O     1  LIG1        0.0000
      3 C3          1.0000    1.0000    1.0000 C.3     1  LIG1        0.0000
      4 C4          1.2919    1.2919   -0.4594 C.3     1  LIG1        0.0000
      5 C5          0.5460    0.5460   -1.5215 C.3     1  LIG1        0.0000
      6 C6          0.2223    1.9908   -1.2502 C.3     1  LIG1        0.0000
      7 C7          1.6966    1.6966    3.7868 C.3     1  LIG1        0.0000
      8 C8          2.0023    0.2364    4.0840 C.3     1  LIG1        0.0000
      9 C9          1.8212   -0.0232    5.5743 C.3     1  LIG1        0.0000
     10 C10         0.5068    0.5193    6.1125 C.3     1  LIG1        0.0000
     11 C11         0.0606    0.0233    7.3367 C.3     1  LIG1        0.0000
     12 C12        -1.1245    0.5102    7.8822 C.3     1  LIG1        0.0000
     13 C13        -1.8551    1.4840    7.2088 C.3     1  LIG1        0.0000
     14 C14        -1.3940    1.9598    5.9862 C.3     1  LIG1        0.0000
     15 C15        -0.2164    1.4809    5.4159 C.3     1  LIG1        0.0000
     16 C16         0.2297    1.9966    4.0541 C.3     1  LIG1        0.0000
     17 H           2.2670    2.2809    4.3642 H       1  LIG1        0.0000
     18 H           0.0377    1.1925    1.1925 H       1  LIG1        0.0000
     19 H           1.1925    0.0377    1.1925 H       1  LIG1        0.0000
     20 H           2.2350    1.5424   -0.6778 H       1  LIG1        0.0000
     21 H          -0.1055   -0.1686   -1.2666 H       1  LIG1        0.0000
     22 H           1.0086    0.2881   -2.3697 H       1  LIG1        0.0000
     23 H           0.4709    2.6933   -1.9170 H       1  LIG1        0.0000
     24 H          -0.6432    2.2367   -0.8138 H       1  LIG1        0.0000
     25 H           2.9455    0.0325    3.8217 H       1  LIG1        0.0000
     26 H           1.3783   -0.3478    3.5650 H       1  LIG1        0.0000
     27 H           1.8477   -1.0104    5.7320 H       1  LIG1        0.0000
     28 H           2.5731    0.4135    6.0682 H       1  LIG1        0.0000
     29 H           0.5874   -0.6765    7.8191 H       1  LIG1        0.0000
     30 H          -1.4511    0.1591    8.7598 H       1  LIG1        0.0000
     31 H          -2.7041    1.8386    7.6005 H       1  LIG1        0.0000
     32 H          -1.9196    2.6616    5.5054 H       1  LIG1        0.0000
     33 H           0.0910    2.9864    4.0219 H       1  LIG1        0.0000
     34 H          -0.3240    1.5592    3.3455 H       1  LIG1        0.0000
@<TRIPOS>BOND
     1     1     2    2
     2     2     3    1
     3     3     4    1
     4     4     5    1
     5     5     6    1
     6     6     4    1
     7     2     7    1
     8     7     8    1
     9     8     9    1
    10     9    10    1
    11    10    11   ar
    12    11    12   ar
    13    12    13   ar
    14    13    14   ar
    15    14    15   ar
    16    15    10   ar
    17    15    16    1
    18    16     7    1
    19     7    17    1
    20     3    18    1
    21     3    19    1
    22     4    20    1
    23     5    21    1
    24     5    22    1
    25     6    23    1
    26     6    24    1
    27     8    25    1
    28     8    26    1
    29     9    27    1
    30     9    28    1
    31    11    29    1
    32    12    30    1
    33    13    31    1
    34    14    32    1
    35    16    33    1
    36    16    34    1
