@<TRIPOS>MOLECULE
*****
 34 36 0 0 0
SMALL
USER_CHARGES

@<TRIPOS>ATOM
      1 O1          3.4788    1.7583    1.7583 O.2     1  LIG1        0.0000
      2 S2          2.0450    2.0450    2.0450 S.O     1  LIG1        0.0000
      3 C3          1.0000    1.0000    1.0000 C.3     1  LIG1        0.0000
      4 C4          1.2919    1.2919   -0.4594 C.3     1  LIG1        0.0000
      5 C5          0.5460    0.5460   -1.5215 C.3     1  LIG1        0.0000
      6 C6          0.2223    1.9908   -1.2502 C.3     1  LIG1        0.0000
      7 C7          1.6967    1.6967    3.7863 C.3     1  LIG1        0.0000
      8 C8          0.4501    2.4573    4.2406 C.3     1  LIG1        0.0000
      9 C9          0.5899    3.2795    5.5264 C.3     1  LIG1        0.0000
     10 C10         1.4400    2.4742    6.4924 C.3     1  LIG1        0.0000
     11 C11         1.0645    2.3568    7.8262 C.3     1  LIG1        0.0000
     12 C12         1.8219    1.5872    8.7013 C.3     1  LIG1        0.0000
     13 C13         2.9659    0.9417    8.2474 C.3     1  LIG1        0.0000
     14 C14         3.3474    1.0704    6.9164 C.3     1  LIG1        0.0000
     15 C15         2.5873    1.8276    6.0352 C.3     1  LIG1        0.0000
     16 C16         2.9728    1.9494    4.5700 C.3     1  LIG1        0.0000
     17 H           1.4920    0.7206    3.8588 H       1  LIG1        0.0000
     18 H           0.0377    1.1925    1.1925 H       1  LIG1        0.0000
     19 H           1.1925    0.0377    1.1925 H       1  LIG1        0.0000
     20 H           2.2350    1.5424   -0.6778 H       1  LIG1        0.0000
     21 H          -0.1055   -0.1686   -1.2666 H       1  LIG1        0.0000
     22 H           1.0086    0.2881   -2.3697 H       1  LIG1        0.0000
     23 H           0.4709    2.6933   -1.9170 H       1  LIG1        0.0000
     24 H          -0.6432    2.2367   -0.8138 H       1  LIG1        0.0000
     25 H          -0.2798    1.7888    4.3838 H       1  LIG1        0.0000
     26 H           0.1896    3.0829    3.5052 H       1  LIG1        0.0000
     27 H           1.0343    4.1528    5.3267 H       1  LIG1        0.0000
     28 H          -0.3122    3.4478    5.9239 H       1  LIG1        0.0000
     29 H           0.2467    2.8278    8.1569 H       1  LIG1        0.0000
     30 H           1.5436    1.4980    9.6577 H       1  LIG1        0.0000
     31 H           3.5122    0.3872    8.8751 H       1  LIG1        0.0000
     32 H           4.1756    0.6140    6.5913 H       1  LIG1        0.0000
     33 H           3.6669    1.2691    4.3345 H       1  LIG1        0.0000
     34 H           3.3247    2.8653    4.3771 H       1  LIG1        0.0000
@<TRIPOS>BOND
     1     1     2    2
     2     2     3    1
     3     3     4    1
     4     4     5    1
     5     5     6    1
     6     6     4    1
     7     2     7    1
     8     7     8    1
     9     8     9    1
    10     9    10    1
    11    10    11   ar
    12    11    12   ar
    13    12    13   ar
    14    13    14   ar
    15    14    15   ar
    16    15    10   ar
    17    15    16    1
    18    16     7    1
    19     7    17    1
    20     3    18    1
    21     3    19    1
    22     4    20    1
    23     5    21    1
    24     5    22    1
    25     6    23    1
    26     6    24    1
    27     8    25    1
    28     8    26    1
    29     9    27    1
    30     9    28    1
    31    11    29    1
    32    12    30    1
    33    13    31    1
    34    14    32    1
    35    16    33    1
    36    16    34    1
