@<TRIPOS>MOLECULE
*****
 34 36 0 0 0
SMALL
USER_CHARGES

@<TRIPOS>ATOM
      1 O1          3.3251    1.3384    2.3318 O.2     1  LIG1        0.0000
      2 S2          2.0450    2.0450    2.0450 S.O     1  LIG1        0.0000
      3 C3          1.0000    1.0000    1.0000 C.3     1  LIG1        0.0000
      4 C4          1.2919    1.2919   -0.4594 C.3     1  LIG1        0.0000
      5 C5          0.5460    0.5460   -1.5215 C.3     1  LIG1        0.0000
      6 C6          0.2223    1.9908   -1.2502 C.3     1  LIG1        0.0000
      7 C7          1.1869    2.3933    3.5997 C.3     1  LIG1        0.0000
      8 C8          0.4201    1.1568    4.0712 C.3     1  LIG1        0.0000
      9 C9         -1.0532    1.3717    4.4344 C.3     1  LIG1        0.0000
     10 C10        -1.1563    2.7062    5.1505 C.3     1  LIG1        0.0000
     11 C11        -1.9165    2.8230    6.3090 C.3     1  LIG1        0.0000
     12 C12        -1.9788    4.0353    6.9860 C.3     1  LIG1        0.0000
     13 C13        -1.2901    5.1397    6.4987 C.3     1  LIG1        0.0000
     14 C14        -0.5406    5.0249    5.3330 C.3     1  LIG1        0.0000
     15 C15        -0.4648    3.8129    4.6601 C.3     1  LIG1        0.0000
     16 C16         0.3779    3.6635    3.4039 C.3     1  LIG1        0.0000
     17 H           1.8859    2.5894    4.2873 H       1  LIG1        0.0000
     18 H           0.0377    1.1925    1.1925 H       1  LIG1        0.0000
     19 H           1.1925    0.0377    1.1925 H       1  LIG1        0.0000
     20 H           2.2350    1.5424   -0.6778 H       1  LIG1        0.0000
     21 H          -0.1055   -0.1686   -1.2666 H       1  LIG1        0.0000
     22 H           1.0086    0.2881   -2.3697 H       1  LIG1        0.0000
     23 H           0.4709    2.6933   -1.9170 H       1  LIG1        0.0000
     24 H          -0.6432    2.2367   -0.8138 H       1  LIG1        0.0000
     25 H           0.8852    0.8001    4.8814 H       1  LIG1        0.0000
     26 H           0.4577    0.4769    3.3388 H       1  LIG1        0.0000
     27 H          -1.6110    1.3855    3.6046 H       1  LIG1        0.0000
     28 H          -1.3675    0.6367    5.0352 H       1  LIG1        0.0000
     29 H          -2.4200    2.0319    6.6564 H       1  LIG1        0.0000
     30 H          -2.5194    4.1129    7.8237 H       1  LIG1        0.0000
     31 H          -1.3332    6.0128    6.9842 H       1  LIG1        0.0000
     32 H          -0.0525    5.8216    4.9766 H       1  LIG1        0.0000
     33 H           0.9854    4.4505    3.2961 H       1  LIG1        0.0000
     34 H          -0.2088    3.5824    2.5982 H       1  LIG1        0.0000
@<TRIPOS>BOND
     1     1     2    2
     2     2     3    1
     3     3     4    1
     4     4     5    1
     5     5     6    1
     6     6     4    1
     7     2     7    1
     8     7     8    1
     9     8     9    1
    10     9    10    1
    11    10    11   ar
    12    11    12   ar
    13    12    13   ar
    14    13    14   ar
    15    14    15   ar
    16    15    10   ar
    17    15    16    1
    18    16     7    1
    19     7    17    1
    20     3    18    1
    21     3    19    1
    22     4    20    1
    23     5    21    1
    24     5    22    1
    25     6    23    1
    26     6    24    1
    27     8    25    1
    28     8    26    1
    29     9    27    1
    30     9    28    1
    31    11    29    1
    32    12    30    1
    33    13    31    1
    34    14    32    1
    35    16    33    1
    36    16    34    1
