@<TRIPOS>MOLECULE
*****
 34 36 0 0 0
SMALL
USER_CHARGES

@<TRIPOS>ATOM
      1 O1          3.4788    1.7583    1.7583 O.2     1  LIG1        0.0000
      2 S2          2.0450    2.0450    2.0450 S.O     1  LIG1        0.0000
      3 C3          1.0000    1.0000    1.0000 C.3     1  LIG1        0.0000
      4 C4          1.2919    1.2919   -0.4594 C.3     1  LIG1        0.0000
      5 C5          0.5460    0.5460   -1.5215 C.3     1  LIG1        0.0000
      6 C6          0.2223    1.9908   -1.2502 C.3     1  LIG1        0.0000
      7 C7          1.6967    1.6967    3.7863 C.3     1  LIG1        0.0000
      8 C8          2.8764    2.1264    4.6597 C.3     1  LIG1        0.0000
      9 C9          3.4022    1.0808    5.6491 C.3     1  LIG1        0.0000
     10 C10         2.2012    0.3482    6.2195 C.3     1  LIG1        0.0000
     11 C11         2.1156    0.0996    7.5850 C.3     1  LIG1        0.0000
     12 C12         0.9976   -0.5364    8.1117 C.3     1  LIG1        0.0000
     13 C13        -0.0342   -0.9375    7.2716 C.3     1  LIG1        0.0000
     14 C14         0.0586   -0.6998    5.9046 C.3     1  LIG1        0.0000
     15 C15         1.1674   -0.0536    5.3750 C.3     1  LIG1        0.0000
     16 C16         1.2671    0.2437    3.8877 C.3     1  LIG1        0.0000
     17 H           0.9120    2.2576    4.0502 H       1  LIG1        0.0000
     18 H           0.0377    1.1925    1.1925 H       1  LIG1        0.0000
     19 H           1.1925    0.0377    1.1925 H       1  LIG1        0.0000
     20 H           2.2350    1.5424   -0.6778 H       1  LIG1        0.0000
     21 H          -0.1055   -0.1686   -1.2666 H       1  LIG1        0.0000
     22 H           1.0086    0.2881   -2.3697 H       1  LIG1        0.0000
     23 H           0.4709    2.6933   -1.9170 H       1  LIG1        0.0000
     24 H          -0.6432    2.2367   -0.8138 H       1  LIG1        0.0000
     25 H           2.5907    2.9276    5.1856 H       1  LIG1        0.0000
     26 H           3.6300    2.3778    4.0523 H       1  LIG1        0.0000
     27 H           4.0031    0.4358    5.1771 H       1  LIG1        0.0000
     28 H           3.9086    1.5310    6.3847 H       1  LIG1        0.0000
     29 H           2.8610    0.3795    8.1900 H       1  LIG1        0.0000
     30 H           0.9357   -0.7053    9.0954 H       1  LIG1        0.0000
     31 H          -0.8396   -1.3950    7.6483 H       1  LIG1        0.0000
     32 H          -0.6791   -0.9967    5.2983 H       1  LIG1        0.0000
     33 H           0.3801    0.1108    3.4455 H       1  LIG1        0.0000
     34 H           1.9463   -0.3514    3.4581 H       1  LIG1        0.0000
@<TRIPOS>BOND
     1     1     2    2
     2     2     3    1
     3     3     4    1
     4     4     5    1
     5     5     6    1
     6     6     4    1
     7     2     7    1
     8     7     8    1
     9     8     9    1
    10     9    10    1
    11    10    11   ar
    12    11    12   ar
    13    12    13   ar
    14    13    14   ar
    15    14    15   ar
    16    15    10   ar
    17    15    16    1
    18    16     7    1
    19     7    17    1
    20     3    18    1
    21     3    19    1
    22     4    20    1
    23     5    21    1
    24     5    22    1
    25     6    23    1
    26     6    24    1
    27     8    25    1
    28     8    26    1
    29     9    27    1
    30     9    28    1
    31    11    29    1
    32    12    30    1
    33    13    31    1
    34    14    32    1
    35    16    33    1
    36    16    34    1
