@<TRIPOS>MOLECULE
*****
 34 36 0 0 0
SMALL
USER_CHARGES

@<TRIPOS>ATOM
      1 O1          3.4788    1.7583    1.7583 O.2     1  LIG1        0.0000
      2 S2          2.0450    2.0450    2.0450 S.O     1  LIG1        0.0000
      3 C3          1.0000    1.0000    1.0000 C.3     1  LIG1        0.0000
      4 C4          1.2919    1.2919   -0.4594 C.3     1  LIG1        0.0000
      5 C5          0.5460    0.5460   -1.5215 C.3     1  LIG1        0.0000
      6 C6          0.2223    1.9908   -1.2502 C.3     1  LIG1        0.0000
      7 C7          1.6959    1.6959    3.7906 C.3     1  LIG1        0.0000
      8 C8          2.8715    2.1260    4.6480 C.3     1  LIG1        0.0000
      9 C9          3.5875    0.9939    5.3728 C.3     1  LIG1        0.0000
     10 C10         3.6798   -0.2213    4.4590 C.3     1  LIG1        0.0000
     11 C11         4.8659   -0.9340    4.3168 C.3     1  LIG1        0.0000
     12 C12         4.9141   -2.0159    3.4420 C.3     1  LIG1        0.0000
     13 C13         3.7774   -2.3801    2.7269 C.3     1  LIG1        0.0000
     14 C14         2.5858   -1.6785    2.8750 C.3     1  LIG1        0.0000
     15 C15         2.5444   -0.5814    3.7403 C.3     1  LIG1        0.0000
     16 C16         1.2664    0.2342    3.8736 C.3     1  LIG1        0.0000
     17 H           0.9104    2.2547    4.0568 H       1  LIG1        0.0000
     18 H           0.0377    1.1925    1.1925 H       1  LIG1        0.0000
     19 H           1.1925    0.0377    1.1925 H       1  LIG1        0.0000
     20 H           2.2350    1.5424   -0.6778 H       1  LIG1        0.0000
     21 H          -0.1055   -0.1686   -1.2666 H       1  LIG1        0.0000
     22 H           1.0086    0.2881   -2.3697 H       1  LIG1        0.0000
     23 H           0.4709    2.6933   -1.9170 H       1  LIG1        0.0000
     24 H          -0.6432    2.2367   -0.8138 H       1  LIG1        0.0000
     25 H           2.5352    2.7704    5.3347 H       1  LIG1        0.0000
     26 H           3.5350    2.5847    4.0570 H       1  LIG1        0.0000
     27 H           4.5084    1.2907    5.6257 H       1  LIG1        0.0000
     28 H           3.0771    0.7517    6.1979 H       1  LIG1        0.0000
     29 H           5.6775   -0.6713    4.8386 H       1  LIG1        0.0000
     30 H           5.7639   -2.5304    3.3279 H       1  LIG1        0.0000
     31 H           3.8178   -3.1567    2.0982 H       1  LIG1        0.0000
     32 H           1.7690   -1.9553    2.3689 H       1  LIG1        0.0000
     33 H           0.8258    0.0500    4.7522 H       1  LIG1        0.0000
     34 H           0.6339    0.0143    3.1309 H       1  LIG1        0.0000
@<TRIPOS>BOND
     1     1     2    2
     2     2     3    1
     3     3     4    1
     4     4     5    1
     5     5     6    1
     6     6     4    1
     7     2     7    1
     8     7     8    1
     9     8     9    1
    10     9    10    1
    11    10    11   ar
    12    11    12   ar
    13    12    13   ar
    14    13    14   ar
    15    14    15   ar
    16    15    10   ar
    17    15    16    1
    18    16     7    1
    19     7    17    1
    20     3    18    1
    21     3    19    1
    22     4    20    1
    23     5    21    1
    24     5    22    1
    25     6    23    1
    26     6    24    1
    27     8    25    1
    28     8    26    1
    29     9    27    1
    30     9    28    1
    31    11    29    1
    32    12    30    1
    33    13    31    1
    34    14    32    1
    35    16    33    1
    36    16    34    1
