@<TRIPOS>MOLECULE
*****
 34 36 0 0 0
SMALL
USER_CHARGES

@<TRIPOS>ATOM
      1 O1          3.3251    1.3384    2.3318 O.2     1  LIG1        0.0000
      2 S2          2.0450    2.0450    2.0450 S.O     1  LIG1        0.0000
      3 C3          1.0000    1.0000    1.0000 C.3     1  LIG1        0.0000
      4 C4          1.2919    1.2919   -0.4594 C.3     1  LIG1        0.0000
      5 C5          0.5460    0.5460   -1.5215 C.3     1  LIG1        0.0000
      6 C6          0.2223    1.9908   -1.2502 C.3     1  LIG1        0.0000
      7 C7          1.1847    2.3941    3.6035 C.3     1  LIG1        0.0000
      8 C8          1.0701    1.1239    4.4254 C.3     1  LIG1        0.0000
      9 C9         -0.3530    0.6322    4.6551 C.3     1  LIG1        0.0000
     10 C10        -1.1731    0.8283    3.3865 C.3     1  LIG1        0.0000
     11 C11        -1.9966   -0.1778    2.8919 C.3     1  LIG1        0.0000
     12 C12        -2.6995    0.0322    1.7088 C.3     1  LIG1        0.0000
     13 C13        -2.5804    1.2454    1.0380 C.3     1  LIG1        0.0000
     14 C14        -1.7681    2.2589    1.5349 C.3     1  LIG1        0.0000
     15 C15        -1.0493    2.0395    2.7135 C.3     1  LIG1        0.0000
     16 C16        -0.1112    3.1145    3.2434 C.3     1  LIG1        0.0000
     17 H           1.7506    3.0360    4.1210 H       1  LIG1        0.0000
     18 H           0.0377    1.1925    1.1925 H       1  LIG1        0.0000
     19 H           1.1925    0.0377    1.1925 H       1  LIG1        0.0000
     20 H           2.2350    1.5424   -0.6778 H       1  LIG1        0.0000
     21 H          -0.1055   -0.1686   -1.2666 H       1  LIG1        0.0000
     22 H           1.0086    0.2881   -2.3697 H       1  LIG1        0.0000
     23 H           0.4709    2.6933   -1.9170 H       1  LIG1        0.0000
     24 H          -0.6432    2.2367   -0.8138 H       1  LIG1        0.0000
     25 H           1.4877    1.2933    5.3181 H       1  LIG1        0.0000
     26 H           1.5753    0.4019    3.9527 H       1  LIG1        0.0000
     27 H          -0.3351   -0.3389    4.8929 H       1  LIG1        0.0000
     28 H          -0.7676    1.1509    5.4028 H       1  LIG1        0.0000
     29 H          -2.0830   -1.0450    3.3823 H       1  LIG1        0.0000
     30 H          -3.2888   -0.6875    1.3417 H       1  LIG1        0.0000
     31 H          -3.0857    1.3905    0.1873 H       1  LIG1        0.0000
     32 H          -1.6991    3.1336    1.0551 H       1  LIG1        0.0000
     33 H          -0.5036    3.5509    4.0531 H       1  LIG1        0.0000
     34 H           0.0582    3.8059    2.5412 H       1  LIG1        0.0000
@<TRIPOS>BOND
     1     1     2    2
     2     2     3    1
     3     3     4    1
     4     4     5    1
     5     5     6    1
     6     6     4    1
     7     2     7    1
     8     7     8    1
     9     8     9    1
    10     9    10    1
    11    10    11   ar
    12    11    12   ar
    13    12    13   ar
    14    13    14   ar
    15    14    15   ar
    16    15    10   ar
    17    15    16    1
    18    16     7    1
    19     7    17    1
    20     3    18    1
    21     3    19    1
    22     4    20    1
    23     5    21    1
    24     5    22    1
    25     6    23    1
    26     6    24    1
    27     8    25    1
    28     8    26    1
    29     9    27    1
    30     9    28    1
    31    11    29    1
    32    12    30    1
    33    13    31    1
    34    14    32    1
    35    16    33    1
    36    16    34    1
