@<TRIPOS>MOLECULE
*****
 34 36 0 0 0
SMALL
USER_CHARGES

@<TRIPOS>ATOM
      1 O1          3.3251    2.3318    1.3384 O.2     1  LIG1        0.0000
      2 S2          2.0450    2.0450    2.0450 S.O     1  LIG1        0.0000
      3 C3          1.0000    1.0000    1.0000 C.3     1  LIG1        0.0000
      4 C4          1.2919    1.2919   -0.4594 C.3     1  LIG1        0.0000
      5 C5          0.5460    0.5460   -1.5215 C.3     1  LIG1        0.0000
      6 C6          0.2223    1.9908   -1.2502 C.3     1  LIG1        0.0000
      7 C7          2.3941    1.1847    3.6035 C.3     1  LIG1        0.0000
      8 C8          2.6064   -0.2943    3.3402 C.3     1  LIG1        0.0000
      9 C9          1.5692   -1.2153    3.9692 C.3     1  LIG1        0.0000
     10 C10         0.1878   -0.5836    3.8554 C.3     1  LIG1        0.0000
     11 C11        -0.9139   -1.3191    3.4308 C.3     1  LIG1        0.0000
     12 C12        -2.1500   -0.6910    3.3063 C.3     1  LIG1        0.0000
     13 C13        -2.2752    0.6599    3.6152 C.3     1  LIG1        0.0000
     14 C14        -1.1795    1.3966    4.0520 C.3     1  LIG1        0.0000
     15 C15         0.0646    0.7684    4.1592 C.3     1  LIG1        0.0000
     16 C16         1.2876    1.5702    4.5808 C.3     1  LIG1        0.0000
     17 H           3.2524    1.5514    3.9626 H       1  LIG1        0.0000
     18 H           0.0377    1.1925    1.1925 H       1  LIG1        0.0000
     19 H           1.1925    0.0377    1.1925 H       1  LIG1        0.0000
     20 H           2.2350    1.5424   -0.6778 H       1  LIG1        0.0000
     21 H          -0.1055   -0.1686   -1.2666 H       1  LIG1        0.0000
     22 H           1.0086    0.2881   -2.3697 H       1  LIG1        0.0000
     23 H           0.4709    2.6933   -1.9170 H       1  LIG1        0.0000
     24 H          -0.6432    2.2367   -0.8138 H       1  LIG1        0.0000
     25 H           3.5046   -0.5476    3.6993 H       1  LIG1        0.0000
     26 H           2.5901   -0.4387    2.3508 H       1  LIG1        0.0000
     27 H           1.5730   -2.0948    3.4933 H       1  LIG1        0.0000
     28 H           1.7916   -1.3573    4.9337 H       1  LIG1        0.0000
     29 H          -0.8187   -2.2913    3.2167 H       1  LIG1        0.0000
     30 H          -2.9465   -1.2096    2.9954 H       1  LIG1        0.0000
     31 H          -3.1648    1.1070    3.5220 H       1  LIG1        0.0000
     32 H          -1.2804    2.3635    4.2864 H       1  LIG1        0.0000
     33 H           1.5521    1.3360    5.5163 H       1  LIG1        0.0000
     34 H           1.0982    2.5504    4.5234 H       1  LIG1        0.0000
@<TRIPOS>BOND
     1     1     2    2
     2     2     3    1
     3     3     4    1
     4     4     5    1
     5     5     6    1
     6     6     4    1
     7     2     7    1
     8     7     8    1
     9     8     9    1
    10     9    10    1
    11    10    11   ar
    12    11    12   ar
    13    12    13   ar
    14    13    14   ar
    15    14    15   ar
    16    15    10   ar
    17    15    16    1
    18    16     7    1
    19     7    17    1
    20     3    18    1
    21     3    19    1
    22     4    20    1
    23     5    21    1
    24     5    22    1
    25     6    23    1
    26     6    24    1
    27     8    25    1
    28     8    26    1
    29     9    27    1
    30     9    28    1
    31    11    29    1
    32    12    30    1
    33    13    31    1
    34    14    32    1
    35    16    33    1
    36    16    34    1
