@<TRIPOS>MOLECULE

  37   39
SMALL
USER_CHARGES
@<TRIPOS>ATOM
   1 C1           0.2272     2.7087     2.5633 C.3          1    LIG   0.0000
   2 C2           0.2650     1.2211     2.2537 C.3          1    LIG   0.0000
   3 N3           1.0000     1.0000     1.0000 N.pl3        1    LIG   0.0000
   4 C4           2.4700     1.0000     1.0000 C.3          1    LIG   0.0000
   5 C5           2.9765    -0.3463     1.4900 C.3          1    LIG   0.0000
   6 C6           4.4891    -0.4036     1.5109 C.3          1    LIG   0.0000
   7 C7           4.8532    -1.4924     2.5049 C.3          1    LIG   0.0000
   8 C8           3.6767    -1.6032     3.4335 C.3          1    LIG   0.0000
   9 C9           2.6970    -0.5414     2.9662 C.3          1    LIG   0.0000
  10 C10          5.0177    -1.1952     3.9749 C.3          1    LIG   0.0000
  11 F11          5.6703    -2.1221     4.6713 F            1    LIG   0.0000
  12 F12          5.1727     0.0829     4.3110 F            1    LIG   0.0000
  13 C13          0.2999     0.7894    -0.1941 C.ar         1    LIG   0.0000
  14 C14         -0.5697    -0.2900    -0.3092 C.ar         1    LIG   0.0000
  15 C15         -1.2536    -0.4774    -1.5059 C.ar         1    LIG   0.0000
  16 C16         -1.0759     0.3959    -2.5741 C.ar         1    LIG   0.0000
  17 C17         -0.2054     1.4742    -2.4544 C.ar         1    LIG   0.0000
  18 C18          0.4808     1.6660    -1.2597 C.ar         1    LIG   0.0000
  19 Cl19         1.5963     3.0440    -1.1000 Cl           1    LIG   0.0000
  20 H            2.5943    -1.0949     0.9482 H            1    LIG   0.0000
  21 H            5.2518    -2.3379     2.1496 H            1    LIG   0.0000
  22 H            3.3266    -2.5129     3.6566 H            1    LIG   0.0000
  23 H           -0.2728     2.8591     3.4162 H            1    LIG   0.0000
  24 H            1.1611     3.0531     2.6593 H            1    LIG   0.0000
  25 H           -0.2316     3.1927     1.8181 H            1    LIG   0.0000
  26 H            0.7238     0.7371     2.9989 H            1    LIG   0.0000
  27 H           -0.6689     0.8767     2.1578 H            1    LIG   0.0000
  28 H            2.8033     1.7222     1.6060 H            1    LIG   0.0000
  29 H            2.8033     1.1637     0.0715 H            1    LIG   0.0000
  30 H            4.8407    -0.6306     0.6027 H            1    LIG   0.0000
  31 H            4.8661     0.4749     1.8043 H            1    LIG   0.0000
  32 H            2.8446     0.3128     3.4648 H            1    LIG   0.0000
  33 H            1.7560    -0.8500     3.1050 H            1    LIG   0.0000
  34 H           -0.7010    -0.9208     0.4555 H            1    LIG   0.0000
  35 H           -1.8814    -1.2501    -1.5995 H            1    LIG   0.0000
  36 H           -1.5741     0.2483    -3.4285 H            1    LIG   0.0000
  37 H           -0.0743     2.1050    -3.2191 H            1    LIG   0.0000
@<TRIPOS>BOND
   1        1        2 1
   2        2        3 1
   3        3        4 1
   4        4        5 1
   5        5        6 1
   6        6        7 1
   7        7        8 1
   8        8        9 1
   9        9        5 1
  10        8       10 1
  11       10        7 1
  12       10       11 1
  13       10       12 1
  14        3       13 1
  15       13       14 ar
  16       14       15 ar
  17       15       16 ar
  18       16       17 ar
  19       17       18 ar
  20       18       13 ar
  21       18       19 1
  22        5       20 1
  23        7       21 1
  24        8       22 1
  25        1       23 1
  26        1       24 1
  27        1       25 1
  28        2       26 1
  29        2       27 1
  30        4       28 1
  31        4       29 1
  32        6       30 1
  33        6       31 1
  34        9       32 1
  35        9       33 1
  36       14       34 1
  37       15       35 1
  38       16       36 1
  39       17       37 1

@<TRIPOS>MOLECULE

  37   39
SMALL
USER_CHARGES
@<TRIPOS>ATOM
   1 C1           0.2272     2.7087     2.5633 C.3          1    LIG   0.0000
   2 C2           0.2650     1.2211     2.2537 C.3          1    LIG   0.0000
   3 N3           1.0000     1.0000     1.0000 N.pl3        1    LIG   0.0000
   4 C4           2.4700     1.0000     1.0000 C.3          1    LIG   0.0000
   5 C5           2.9765    -0.3463     1.4900 C.3          1    LIG   0.0000
   6 C6           4.4891    -0.4036     1.5109 C.3          1    LIG   0.0000
   7 C7           4.8532    -1.4924     2.5049 C.3          1    LIG   0.0000
   8 C8           3.6767    -1.6032     3.4335 C.3          1    LIG   0.0000
   9 C9           2.6970    -0.5414     2.9662 C.3          1    LIG   0.0000
  10 C10          5.0177    -1.1952     3.9749 C.3          1    LIG   0.0000
  11 F11          5.6703    -2.1221     4.6713 F            1    LIG   0.0000
  12 F12          5.1727     0.0829     4.3110 F            1    LIG   0.0000
  13 C13          0.2999     0.7894    -0.1941 C.ar         1    LIG   0.0000
  14 C14         -0.5691     1.7648    -0.6719 C.ar         1    LIG   0.0000
  15 C15         -1.2527     1.5317    -1.8607 C.ar         1    LIG   0.0000
  16 C16         -1.0756     0.3454    -2.5654 C.ar         1    LIG   0.0000
  17 C17         -0.2053    -0.6270    -2.0839 C.ar         1    LIG   0.0000
  18 C18          0.4808    -0.3987    -0.8957 C.ar         1    LIG   0.0000
  19 Cl19         1.5959    -1.6391    -0.2740 Cl           1    LIG   0.0000
  20 H            2.5943    -1.0949     0.9482 H            1    LIG   0.0000
  21 H            5.2518    -2.3379     2.1496 H            1    LIG   0.0000
  22 H            3.3266    -2.5129     3.6566 H            1    LIG   0.0000
  23 H           -0.2728     2.8591     3.4162 H            1    LIG   0.0000
  24 H            1.1611     3.0531     2.6593 H            1    LIG   0.0000
  25 H           -0.2316     3.1927     1.8181 H            1    LIG   0.0000
  26 H            0.7238     0.7371     2.9989 H            1    LIG   0.0000
  27 H           -0.6689     0.8767     2.1578 H            1    LIG   0.0000
  28 H            2.8033     1.7222     1.6060 H            1    LIG   0.0000
  29 H            2.8033     1.1637     0.0715 H            1    LIG   0.0000
  30 H            4.8407    -0.6306     0.6027 H            1    LIG   0.0000
  31 H            4.8661     0.4749     1.8043 H            1    LIG   0.0000
  32 H            2.8446     0.3128     3.4648 H            1    LIG   0.0000
  33 H            1.7560    -0.8500     3.1050 H            1    LIG   0.0000
  34 H           -0.7001     2.6192    -0.1692 H            1    LIG   0.0000
  35 H           -1.8798     2.2262    -2.2134 H            1    LIG   0.0000
  36 H           -1.5742     0.1917    -3.4185 H            1    LIG   0.0000
  37 H           -0.0742    -1.4813    -2.5869 H            1    LIG   0.0000
@<TRIPOS>BOND
   1        1        2 1
   2        2        3 1
   3        3        4 1
   4        4        5 1
   5        5        6 1
   6        6        7 1
   7        7        8 1
   8        8        9 1
   9        9        5 1
  10        8       10 1
  11       10        7 1
  12       10       11 1
  13       10       12 1
  14        3       13 1
  15       13       14 ar
  16       14       15 ar
  17       15       16 ar
  18       16       17 ar
  19       17       18 ar
  20       18       13 ar
  21       18       19 1
  22        5       20 1
  23        7       21 1
  24        8       22 1
  25        1       23 1
  26        1       24 1
  27        1       25 1
  28        2       26 1
  29        2       27 1
  30        4       28 1
  31        4       29 1
  32        6       30 1
  33        6       31 1
  34        9       32 1
  35        9       33 1
  36       14       34 1
  37       15       35 1
  38       16       36 1
  39       17       37 1

@<TRIPOS>MOLECULE

  37   39
SMALL
USER_CHARGES
@<TRIPOS>ATOM
   1 C1           0.2272     2.7087     2.5633 C.3          1    LIG   0.0000
   2 C2           0.2650     1.2211     2.2537 C.3          1    LIG   0.0000
   3 N3           1.0000     1.0000     1.0000 N.pl3        1    LIG   0.0000
   4 C4           2.4700     1.0000     1.0000 C.3          1    LIG   0.0000
   5 C5           2.9765    -0.3463     1.4900 C.3          1    LIG   0.0000
   6 C6           2.5011    -1.4805     0.6073 C.3          1    LIG   0.0000
   7 C7           3.4809    -2.6200     0.8256 C.3          1    LIG   0.0000
   8 C8           4.7534    -1.9751     1.2985 C.3          1    LIG   0.0000
   9 C9           4.4722    -0.4830     1.2915 C.3          1    LIG   0.0000
  10 C10          4.7424    -2.7430     0.0070 C.3          1    LIG   0.0000
  11 F11          5.3231    -3.9396     0.0366 F            1    LIG   0.0000
  12 F12          4.7935    -2.0362    -1.1193 F            1    LIG   0.0000
  13 C13          0.2999     0.7894    -0.1941 C.ar         1    LIG   0.0000
  14 C14         -0.5697    -0.2900    -0.3092 C.ar         1    LIG   0.0000
  15 C15         -1.2536    -0.4774    -1.5059 C.ar         1    LIG   0.0000
  16 C16         -1.0759     0.3959    -2.5741 C.ar         1    LIG   0.0000
  17 C17         -0.2054     1.4742    -2.4544 C.ar         1    LIG   0.0000
  18 C18          0.4808     1.6660    -1.2597 C.ar         1    LIG   0.0000
  19 Cl19         1.5963     3.0440    -1.1000 Cl           1    LIG   0.0000
  20 H            2.7234    -0.5015     2.4449 H            1    LIG   0.0000
  21 H            3.1566    -3.4309     1.3126 H            1    LIG   0.0000
  22 H            5.2262    -2.3697     2.0864 H            1    LIG   0.0000
  23 H           -0.2728     2.8591     3.4162 H            1    LIG   0.0000
  24 H            1.1611     3.0531     2.6593 H            1    LIG   0.0000
  25 H           -0.2316     3.1927     1.8181 H            1    LIG   0.0000
  26 H            0.7238     0.7371     2.9989 H            1    LIG   0.0000
  27 H           -0.6689     0.8767     2.1578 H            1    LIG   0.0000
  28 H            2.8033     1.7222     1.6060 H            1    LIG   0.0000
  29 H            2.8033     1.1637     0.0715 H            1    LIG   0.0000
  30 H            1.5778    -1.7612     0.8694 H            1    LIG   0.0000
  31 H            2.5041    -1.1987    -0.3522 H            1    LIG   0.0000
  32 H            4.7462    -0.0808     0.4179 H            1    LIG   0.0000
  33 H            4.9653    -0.0319     2.0354 H            1    LIG   0.0000
  34 H           -0.7010    -0.9208     0.4555 H            1    LIG   0.0000
  35 H           -1.8814    -1.2501    -1.5995 H            1    LIG   0.0000
  36 H           -1.5741     0.2483    -3.4285 H            1    LIG   0.0000
  37 H           -0.0743     2.1050    -3.2191 H            1    LIG   0.0000
@<TRIPOS>BOND
   1        1        2 1
   2        2        3 1
   3        3        4 1
   4        4        5 1
   5        5        6 1
   6        6        7 1
   7        7        8 1
   8        8        9 1
   9        9        5 1
  10        8       10 1
  11       10        7 1
  12       10       11 1
  13       10       12 1
  14        3       13 1
  15       13       14 ar
  16       14       15 ar
  17       15       16 ar
  18       16       17 ar
  19       17       18 ar
  20       18       13 ar
  21       18       19 1
  22        5       20 1
  23        7       21 1
  24        8       22 1
  25        1       23 1
  26        1       24 1
  27        1       25 1
  28        2       26 1
  29        2       27 1
  30        4       28 1
  31        4       29 1
  32        6       30 1
  33        6       31 1
  34        9       32 1
  35        9       33 1
  36       14       34 1
  37       15       35 1
  38       16       36 1
  39       17       37 1

@<TRIPOS>MOLECULE

  37   39
SMALL
USER_CHARGES
@<TRIPOS>ATOM
   1 C1           0.2272     2.7087     2.5633 C.3          1    LIG   0.0000
   2 C2           0.2650     1.2211     2.2537 C.3          1    LIG   0.0000
   3 N3           1.0000     1.0000     1.0000 N.pl3        1    LIG   0.0000
   4 C4           2.4700     1.0000     1.0000 C.3          1    LIG   0.0000
   5 C5           2.9760    -0.3449     1.4895 C.3          1    LIG   0.0000
   6 C6           4.4897    -0.4120     1.5139 C.3          1    LIG   0.0000
   7 C7           4.8072    -1.8930     1.5975 C.3          1    LIG   0.0000
   8 C8           3.6654    -2.5722     0.9174 C.3          1    LIG   0.0000
   9 C9           2.7151    -1.4679     0.5081 C.3          1    LIG   0.0000
  10 C10          4.0345    -2.9635     2.3276 C.3          1    LIG   0.0000
  11 F11          4.6766    -4.1164     2.4485 F            1    LIG   0.0000
  12 F12          3.2287    -2.5785     3.3189 F            1    LIG   0.0000
  13 C13          0.2999     0.7894    -0.1941 C.ar         1    LIG   0.0000
  14 C14         -0.5697    -0.2900    -0.3092 C.ar         1    LIG   0.0000
  15 C15         -1.2536    -0.4774    -1.5059 C.ar         1    LIG   0.0000
  16 C16         -1.0759     0.3959    -2.5741 C.ar         1    LIG   0.0000
  17 C17         -0.2054     1.4742    -2.4544 C.ar         1    LIG   0.0000
  18 C18          0.4808     1.6660    -1.2597 C.ar         1    LIG   0.0000
  19 Cl19         1.5963     3.0440    -1.1000 Cl           1    LIG   0.0000
  20 H            2.5957    -0.5625     2.3884 H            1    LIG   0.0000
  21 H            5.7179    -2.1580     1.2807 H            1    LIG   0.0000
  22 H            3.9086    -3.2282     0.2029 H            1    LIG   0.0000
  23 H           -0.2728     2.8591     3.4162 H            1    LIG   0.0000
  24 H            1.1611     3.0531     2.6593 H            1    LIG   0.0000
  25 H           -0.2316     3.1927     1.8181 H            1    LIG   0.0000
  26 H            0.7238     0.7371     2.9989 H            1    LIG   0.0000
  27 H           -0.6689     0.8767     2.1578 H            1    LIG   0.0000
  28 H            2.8033     1.7222     1.6060 H            1    LIG   0.0000
  29 H            2.8033     1.1637     0.0715 H            1    LIG   0.0000
  30 H            4.8739    -0.0153     0.6802 H            1    LIG   0.0000
  31 H            4.8515     0.0720     2.3107 H            1    LIG   0.0000
  32 H            1.7666    -1.7781     0.5727 H            1    LIG   0.0000
  33 H            2.9051    -1.1690    -0.4271 H            1    LIG   0.0000
  34 H           -0.7010    -0.9208     0.4555 H            1    LIG   0.0000
  35 H           -1.8814    -1.2501    -1.5995 H            1    LIG   0.0000
  36 H           -1.5741     0.2483    -3.4285 H            1    LIG   0.0000
  37 H           -0.0743     2.1050    -3.2191 H            1    LIG   0.0000
@<TRIPOS>BOND
   1        1        2 1
   2        2        3 1
   3        3        4 1
   4        4        5 1
   5        5        6 1
   6        6        7 1
   7        7        8 1
   8        8        9 1
   9        9        5 1
  10        8       10 1
  11       10        7 1
  12       10       11 1
  13       10       12 1
  14        3       13 1
  15       13       14 ar
  16       14       15 ar
  17       15       16 ar
  18       16       17 ar
  19       17       18 ar
  20       18       13 ar
  21       18       19 1
  22        5       20 1
  23        7       21 1
  24        8       22 1
  25        1       23 1
  26        1       24 1
  27        1       25 1
  28        2       26 1
  29        2       27 1
  30        4       28 1
  31        4       29 1
  32        6       30 1
  33        6       31 1
  34        9       32 1
  35        9       33 1
  36       14       34 1
  37       15       35 1
  38       16       36 1
  39       17       37 1

@<TRIPOS>MOLECULE

  37   39
SMALL
USER_CHARGES
@<TRIPOS>ATOM
   1 C1           0.2272     2.7087     2.5633 C.3          1    LIG   0.0000
   2 C2           0.2650     1.2211     2.2537 C.3          1    LIG   0.0000
   3 N3           1.0000     1.0000     1.0000 N.pl3        1    LIG   0.0000
   4 C4           2.4700     1.0000     1.0000 C.3          1    LIG   0.0000
   5 C5           2.9760    -0.3449     1.4895 C.3          1    LIG   0.0000
   6 C6           2.5051    -0.6556     2.8959 C.3          1    LIG   0.0000
   7 C7           3.4183    -1.7708     3.3690 C.3          1    LIG   0.0000
   8 C8           4.7016    -1.5562     2.6379 C.3          1    LIG   0.0000
   9 C9           4.4688    -0.3590     1.7419 C.3          1    LIG   0.0000
  10 C10          4.0065    -2.8930     2.5502 C.3          1    LIG   0.0000
  11 F11          4.5519    -3.8658     3.2660 F            1    LIG   0.0000
  12 F12          3.3963    -3.2113     1.4071 F            1    LIG   0.0000
  13 C13          0.2999     0.7894    -0.1941 C.ar         1    LIG   0.0000
  14 C14         -0.5691     1.7648    -0.6719 C.ar         1    LIG   0.0000
  15 C15         -1.2527     1.5317    -1.8607 C.ar         1    LIG   0.0000
  16 C16         -1.0756     0.3454    -2.5654 C.ar         1    LIG   0.0000
  17 C17         -0.2053    -0.6270    -2.0839 C.ar         1    LIG   0.0000
  18 C18          0.4808    -0.3987    -0.8957 C.ar         1    LIG   0.0000
  19 Cl19         1.5959    -1.6391    -0.2740 Cl           1    LIG   0.0000
  20 H            2.7151    -1.0747     0.8576 H            1    LIG   0.0000
  21 H            3.4980    -1.8721     4.3607 H            1    LIG   0.0000
  22 H            5.5273    -1.5278     3.2012 H            1    LIG   0.0000
  23 H           -0.2728     2.8591     3.4162 H            1    LIG   0.0000
  24 H            1.1611     3.0531     2.6593 H            1    LIG   0.0000
  25 H           -0.2316     3.1927     1.8181 H            1    LIG   0.0000
  26 H            0.7238     0.7371     2.9989 H            1    LIG   0.0000
  27 H           -0.6689     0.8767     2.1578 H            1    LIG   0.0000
  28 H            2.8033     1.7222     1.6060 H            1    LIG   0.0000
  29 H            2.8033     1.1637     0.0715 H            1    LIG   0.0000
  30 H            2.5958     0.1481     3.4840 H            1    LIG   0.0000
  31 H            1.5521    -0.9586     2.8900 H            1    LIG   0.0000
  32 H            4.9699    -0.4602     0.8824 H            1    LIG   0.0000
  33 H            4.7563     0.4831     2.1982 H            1    LIG   0.0000
  34 H           -0.7001     2.6192    -0.1692 H            1    LIG   0.0000
  35 H           -1.8798     2.2262    -2.2134 H            1    LIG   0.0000
  36 H           -1.5742     0.1917    -3.4185 H            1    LIG   0.0000
  37 H           -0.0742    -1.4813    -2.5869 H            1    LIG   0.0000
@<TRIPOS>BOND
   1        1        2 1
   2        2        3 1
   3        3        4 1
   4        4        5 1
   5        5        6 1
   6        6        7 1
   7        7        8 1
   8        8        9 1
   9        9        5 1
  10        8       10 1
  11       10        7 1
  12       10       11 1
  13       10       12 1
  14        3       13 1
  15       13       14 ar
  16       14       15 ar
  17       15       16 ar
  18       16       17 ar
  19       17       18 ar
  20       18       13 ar
  21       18       19 1
  22        5       20 1
  23        7       21 1
  24        8       22 1
  25        1       23 1
  26        1       24 1
  27        1       25 1
  28        2       26 1
  29        2       27 1
  30        4       28 1
  31        4       29 1
  32        6       30 1
  33        6       31 1
  34        9       32 1
  35        9       33 1
  36       14       34 1
  37       15       35 1
  38       16       36 1
  39       17       37 1

@<TRIPOS>MOLECULE

  37   39
SMALL
USER_CHARGES
@<TRIPOS>ATOM
   1 C1           0.2272     2.7087     2.5633 C.3          1    LIG   0.0000
   2 C2           0.2650     1.2211     2.2537 C.3          1    LIG   0.0000
   3 N3           1.0000     1.0000     1.0000 N.pl3        1    LIG   0.0000
   4 C4           2.4700     1.0000     1.0000 C.3          1    LIG   0.0000
   5 C5           2.9765     2.4327     1.0000 C.3          1    LIG   0.0000
   6 C6           4.4891     2.4937     1.0000 C.3          1    LIG   0.0000
   7 C7           4.8532     3.8568     0.4383 C.3          1    LIG   0.0000
   8 C8           3.6767     4.2785    -0.3964 C.3          1    LIG   0.0000
   9 C9           2.6970     3.1209    -0.3204 C.3          1    LIG   0.0000
  10 C10          5.0177     4.0803    -1.0447 C.3          1    LIG   0.0000
  11 F11          5.6703     5.1895    -1.3821 F            1    LIG   0.0000
  12 F12          5.1727     2.9942    -1.7977 F            1    LIG   0.0000
  13 C13          0.2999     0.7894    -0.1941 C.ar         1    LIG   0.0000
  14 C14         -0.5691     1.7648    -0.6719 C.ar         1    LIG   0.0000
  15 C15         -1.2527     1.5317    -1.8607 C.ar         1    LIG   0.0000
  16 C16         -1.0756     0.3454    -2.5654 C.ar         1    LIG   0.0000
  17 C17         -0.2053    -0.6270    -2.0839 C.ar         1    LIG   0.0000
  18 C18          0.4808    -0.3987    -0.8957 C.ar         1    LIG   0.0000
  19 Cl19         1.5959    -1.6391    -0.2740 Cl           1    LIG   0.0000
  20 H            2.5943     2.9508     1.7652 H            1    LIG   0.0000
  21 H            5.2518     4.5298     1.0614 H            1    LIG   0.0000
  22 H            3.3266     5.2097    -0.2949 H            1    LIG   0.0000
  23 H           -0.2728     2.8591     3.4162 H            1    LIG   0.0000
  24 H            1.1611     3.0531     2.6593 H            1    LIG   0.0000
  25 H           -0.2316     3.1927     1.8181 H            1    LIG   0.0000
  26 H            0.7238     0.7371     2.9989 H            1    LIG   0.0000
  27 H           -0.6689     0.8767     2.1578 H            1    LIG   0.0000
  28 H            2.8033     0.5286     0.1835 H            1    LIG   0.0000
  29 H            2.8033     0.5286     1.8165 H            1    LIG   0.0000
  30 H            4.8407     2.3964     1.9311 H            1    LIG   0.0000
  31 H            4.8661     1.7685     0.4238 H            1    LIG   0.0000
  32 H            2.8446     2.4888    -1.0811 H            1    LIG   0.0000
  33 H            1.7560     3.4584    -0.3453 H            1    LIG   0.0000
  34 H           -0.7001     2.6192    -0.1692 H            1    LIG   0.0000
  35 H           -1.8798     2.2262    -2.2134 H            1    LIG   0.0000
  36 H           -1.5742     0.1917    -3.4185 H            1    LIG   0.0000
  37 H           -0.0742    -1.4813    -2.5869 H            1    LIG   0.0000
@<TRIPOS>BOND
   1        1        2 1
   2        2        3 1
   3        3        4 1
   4        4        5 1
   5        5        6 1
   6        6        7 1
   7        7        8 1
   8        8        9 1
   9        9        5 1
  10        8       10 1
  11       10        7 1
  12       10       11 1
  13       10       12 1
  14        3       13 1
  15       13       14 ar
  16       14       15 ar
  17       15       16 ar
  18       16       17 ar
  19       17       18 ar
  20       18       13 ar
  21       18       19 1
  22        5       20 1
  23        7       21 1
  24        8       22 1
  25        1       23 1
  26        1       24 1
  27        1       25 1
  28        2       26 1
  29        2       27 1
  30        4       28 1
  31        4       29 1
  32        6       30 1
  33        6       31 1
  34        9       32 1
  35        9       33 1
  36       14       34 1
  37       15       35 1
  38       16       36 1
  39       17       37 1

@<TRIPOS>MOLECULE

  37   39
SMALL
USER_CHARGES
@<TRIPOS>ATOM
   1 C1           0.2272    -0.0710     3.0534 C.3          1    LIG   0.0000
   2 C2           0.2650     1.2211     2.2537 C.3          1    LIG   0.0000
   3 N3           1.0000     1.0000     1.0000 N.pl3        1    LIG   0.0000
   4 C4           2.4700     1.0000     1.0000 C.3          1    LIG   0.0000
   5 C5           2.9765     2.4327     1.0000 C.3          1    LIG   0.0000
   6 C6           2.5011     3.1966     2.2174 C.3          1    LIG   0.0000
   7 C7           3.4809     4.3420     2.4020 C.3          1    LIG   0.0000
   8 C8           4.7534     3.8978     1.7370 C.3          1    LIG   0.0000
   9 C9           4.4722     2.4933     1.2333 C.3          1    LIG   0.0000
  10 C10          4.7424     4.1777     3.2133 C.3          1    LIG   0.0000
  11 F11          5.3231     5.3122     3.5947 F            1    LIG   0.0000
  12 F12          4.7935     3.1283     4.0299 F            1    LIG   0.0000
  13 C13          0.2999     0.7894    -0.1941 C.ar         1    LIG   0.0000
  14 C14         -0.5691     1.7648    -0.6719 C.ar         1    LIG   0.0000
  15 C15         -1.2527     1.5317    -1.8607 C.ar         1    LIG   0.0000
  16 C16         -1.0756     0.3454    -2.5654 C.ar         1    LIG   0.0000
  17 C17         -0.2053    -0.6270    -2.0839 C.ar         1    LIG   0.0000
  18 C18          0.4808    -0.3987    -0.8957 C.ar         1    LIG   0.0000
  19 Cl19         1.5959    -1.6391    -0.2740 Cl           1    LIG   0.0000
  20 H            2.7234     2.9052     0.1558 H            1    LIG   0.0000
  21 H            3.1566     5.2706     2.2217 H            1    LIG   0.0000
  22 H            5.2262     4.5380     1.1316 H            1    LIG   0.0000
  23 H           -0.2728     0.0794     3.9063 H            1    LIG   0.0000
  24 H           -0.2316    -0.7806     2.5188 H            1    LIG   0.0000
  25 H            1.1611    -0.3618     3.2614 H            1    LIG   0.0000
  26 H           -0.6689     1.5118     2.0458 H            1    LIG   0.0000
  27 H            0.7238     1.9307     2.7884 H            1    LIG   0.0000
  28 H            2.8033     0.5286     0.1835 H            1    LIG   0.0000
  29 H            2.8033     0.5286     1.8165 H            1    LIG   0.0000
  30 H            1.5778     3.5500     2.0671 H            1    LIG   0.0000
  31 H            2.5041     2.6036     3.0226 H            1    LIG   0.0000
  32 H            4.7462     1.8165     1.9167 H            1    LIG   0.0000
  33 H            4.9653     2.3238     0.3800 H            1    LIG   0.0000
  34 H           -0.7001     2.6192    -0.1692 H            1    LIG   0.0000
  35 H           -1.8798     2.2262    -2.2134 H            1    LIG   0.0000
  36 H           -1.5742     0.1917    -3.4185 H            1    LIG   0.0000
  37 H           -0.0742    -1.4813    -2.5869 H            1    LIG   0.0000
@<TRIPOS>BOND
   1        1        2 1
   2        2        3 1
   3        3        4 1
   4        4        5 1
   5        5        6 1
   6        6        7 1
   7        7        8 1
   8        8        9 1
   9        9        5 1
  10        8       10 1
  11       10        7 1
  12       10       11 1
  13       10       12 1
  14        3       13 1
  15       13       14 ar
  16       14       15 ar
  17       15       16 ar
  18       16       17 ar
  19       17       18 ar
  20       18       13 ar
  21       18       19 1
  22        5       20 1
  23        7       21 1
  24        8       22 1
  25        1       23 1
  26        1       24 1
  27        1       25 1
  28        2       26 1
  29        2       27 1
  30        4       28 1
  31        4       29 1
  32        6       30 1
  33        6       31 1
  34        9       32 1
  35        9       33 1
  36       14       34 1
  37       15       35 1
  38       16       36 1
  39       17       37 1

@<TRIPOS>MOLECULE

  37   39
SMALL
USER_CHARGES
@<TRIPOS>ATOM
   1 C1           0.2272    -0.0710     3.0534 C.3          1    LIG   0.0000
   2 C2           0.2650     1.2211     2.2537 C.3          1    LIG   0.0000
   3 N3           1.0000     1.0000     1.0000 N.pl3        1    LIG   0.0000
   4 C4           2.4700     1.0000     1.0000 C.3          1    LIG   0.0000
   5 C5           2.9760     2.4313     1.0000 C.3          1    LIG   0.0000
   6 C6           4.4897     2.5026     1.0000 C.3          1    LIG   0.0000
   7 C7           4.8072     3.9229     1.4280 C.3          1    LIG   0.0000
   8 C8           3.6654     4.3286     2.2994 C.3          1    LIG   0.0000
   9 C9           2.7151     3.1508     2.3063 C.3          1    LIG   0.0000
  10 C10          4.0345     5.1786     1.1081 C.3          1    LIG   0.0000
  11 F11          4.6766     6.3033     1.3888 F            1    LIG   0.0000
  12 F12          3.2287     5.1558     0.0449 F            1    LIG   0.0000
  13 C13          0.2999     0.7894    -0.1941 C.ar         1    LIG   0.0000
  14 C14         -0.5697    -0.2900    -0.3092 C.ar         1    LIG   0.0000
  15 C15         -1.2536    -0.4774    -1.5059 C.ar         1    LIG   0.0000
  16 C16         -1.0759     0.3959    -2.5741 C.ar         1    LIG   0.0000
  17 C17         -0.2054     1.4742    -2.4544 C.ar         1    LIG   0.0000
  18 C18          0.4808     1.6660    -1.2597 C.ar         1    LIG   0.0000
  19 Cl19         1.5963     3.0440    -1.1000 Cl           1    LIG   0.0000
  20 H            2.5957     2.9431     0.2297 H            1    LIG   0.0000
  21 H            5.7179     4.0635     1.8163 H            1    LIG   0.0000
  22 H            3.9086     4.7006     3.1952 H            1    LIG   0.0000
  23 H           -0.2728     0.0794     3.9063 H            1    LIG   0.0000
  24 H           -0.2316    -0.7806     2.5188 H            1    LIG   0.0000
  25 H            1.1611    -0.3618     3.2614 H            1    LIG   0.0000
  26 H           -0.6689     1.5118     2.0458 H            1    LIG   0.0000
  27 H            0.7238     1.9307     2.7884 H            1    LIG   0.0000
  28 H            2.8033     0.5286     0.1835 H            1    LIG   0.0000
  29 H            2.8033     0.5286     1.8165 H            1    LIG   0.0000
  30 H            4.8739     1.8447     1.6477 H            1    LIG   0.0000
  31 H            4.8515     2.3204     0.0857 H            1    LIG   0.0000
  32 H            1.7666     3.4644     2.3517 H            1    LIG   0.0000
  33 H            2.9051     2.5501     3.0828 H            1    LIG   0.0000
  34 H           -0.7010    -0.9208     0.4555 H            1    LIG   0.0000
  35 H           -1.8814    -1.2501    -1.5995 H            1    LIG   0.0000
  36 H           -1.5741     0.2483    -3.4285 H            1    LIG   0.0000
  37 H           -0.0743     2.1050    -3.2191 H            1    LIG   0.0000
@<TRIPOS>BOND
   1        1        2 1
   2        2        3 1
   3        3        4 1
   4        4        5 1
   5        5        6 1
   6        6        7 1
   7        7        8 1
   8        8        9 1
   9        9        5 1
  10        8       10 1
  11       10        7 1
  12       10       11 1
  13       10       12 1
  14        3       13 1
  15       13       14 ar
  16       14       15 ar
  17       15       16 ar
  18       16       17 ar
  19       17       18 ar
  20       18       13 ar
  21       18       19 1
  22        5       20 1
  23        7       21 1
  24        8       22 1
  25        1       23 1
  26        1       24 1
  27        1       25 1
  28        2       26 1
  29        2       27 1
  30        4       28 1
  31        4       29 1
  32        6       30 1
  33        6       31 1
  34        9       32 1
  35        9       33 1
  36       14       34 1
  37       15       35 1
  38       16       36 1
  39       17       37 1

@<TRIPOS>MOLECULE

  37   39
SMALL
USER_CHARGES
@<TRIPOS>ATOM
   1 C1           0.2272    -0.0710     3.0534 C.3          1    LIG   0.0000
   2 C2           0.2650     1.2211     2.2537 C.3          1    LIG   0.0000
   3 N3           1.0000     1.0000     1.0000 N.pl3        1    LIG   0.0000
   4 C4           2.4700     1.0000     1.0000 C.3          1    LIG   0.0000
   5 C5           2.9763     2.4320     1.0000 C.3          1    LIG   0.0000
   6 C6           2.4831     3.1726    -0.2329 C.3          1    LIG   0.0000
   7 C7           3.5630     4.1833    -0.5374 C.3          1    LIG   0.0000
   8 C8           4.7296     3.9155     0.3703 C.3          1    LIG   0.0000
   9 C9           4.4659     2.4727     0.7519 C.3          1    LIG   0.0000
  10 C10          3.9486     5.1933     0.5080 C.3          1    LIG   0.0000
  11 F11          3.1764     5.3199     1.5863 F            1    LIG   0.0000
  12 F12          4.5887     6.2732     0.0758 F            1    LIG   0.0000
  13 C13          0.2999     0.7894    -0.1941 C.ar         1    LIG   0.0000
  14 C14         -0.5691     1.7648    -0.6719 C.ar         1    LIG   0.0000
  15 C15         -1.2527     1.5317    -1.8607 C.ar         1    LIG   0.0000
  16 C16         -1.0756     0.3454    -2.5654 C.ar         1    LIG   0.0000
  17 C17         -0.2053    -0.6270    -2.0839 C.ar         1    LIG   0.0000
  18 C18          0.4808    -0.3987    -0.8957 C.ar         1    LIG   0.0000
  19 Cl19         1.5959    -1.6391    -0.2740 Cl           1    LIG   0.0000
  20 H            2.7289     2.9111     1.8422 H            1    LIG   0.0000
  21 H            3.7502     4.4004    -1.4954 H            1    LIG   0.0000
  22 H            5.6127     4.0447    -0.0808 H            1    LIG   0.0000
  23 H           -0.2728     0.0794     3.9063 H            1    LIG   0.0000
  24 H           -0.2316    -0.7806     2.5188 H            1    LIG   0.0000
  25 H            1.1611    -0.3618     3.2614 H            1    LIG   0.0000
  26 H           -0.6689     1.5118     2.0458 H            1    LIG   0.0000
  27 H            0.7238     1.9307     2.7884 H            1    LIG   0.0000
  28 H            2.8033     0.5286     0.1835 H            1    LIG   0.0000
  29 H            2.8033     0.5286     1.8165 H            1    LIG   0.0000
  30 H            2.3663     2.5410    -0.9993 H            1    LIG   0.0000
  31 H            1.6150     3.6315    -0.0438 H            1    LIG   0.0000
  32 H            4.9716     2.2245     1.5782 H            1    LIG   0.0000
  33 H            4.7201     1.8552     0.0075 H            1    LIG   0.0000
  34 H           -0.7001     2.6192    -0.1692 H            1    LIG   0.0000
  35 H           -1.8798     2.2262    -2.2134 H            1    LIG   0.0000
  36 H           -1.5742     0.1917    -3.4185 H            1    LIG   0.0000
  37 H           -0.0742    -1.4813    -2.5869 H            1    LIG   0.0000
@<TRIPOS>BOND
   1        1        2 1
   2        2        3 1
   3        3        4 1
   4        4        5 1
   5        5        6 1
   6        6        7 1
   7        7        8 1
   8        8        9 1
   9        9        5 1
  10        8       10 1
  11       10        7 1
  12       10       11 1
  13       10       12 1
  14        3       13 1
  15       13       14 ar
  16       14       15 ar
  17       15       16 ar
  18       16       17 ar
  19       17       18 ar
  20       18       13 ar
  21       18       19 1
  22        5       20 1
  23        7       21 1
  24        8       22 1
  25        1       23 1
  26        1       24 1
  27        1       25 1
  28        2       26 1
  29        2       27 1
  30        4       28 1
  31        4       29 1
  32        6       30 1
  33        6       31 1
  34        9       32 1
  35        9       33 1
  36       14       34 1
  37       15       35 1
  38       16       36 1
  39       17       37 1

@<TRIPOS>MOLECULE

  37   39
SMALL
USER_CHARGES
@<TRIPOS>ATOM
   1 C1           0.2272     2.7087     2.5633 C.3          1    LIG   0.0000
   2 C2           0.2650     1.2211     2.2537 C.3          1    LIG   0.0000
   3 N3           1.0000     1.0000     1.0000 N.pl3        1    LIG   0.0000
   4 C4           2.4700     1.0000     1.0000 C.3          1    LIG   0.0000
   5 C5           2.9765     0.5100    -0.3463 C.3          1    LIG   0.0000
   6 C6           2.5011     1.3927    -1.4805 C.3          1    LIG   0.0000
   7 C7           3.4809     1.1744    -2.6200 C.3          1    LIG   0.0000
   8 C8           4.7534     0.7015    -1.9751 C.3          1    LIG   0.0000
   9 C9           4.4722     0.7085    -0.4830 C.3          1    LIG   0.0000
  10 C10          4.7424     1.9930    -2.7430 C.3          1    LIG   0.0000
  11 F11          5.3231     1.9634    -3.9396 F            1    LIG   0.0000
  12 F12          4.7935     3.1193    -2.0362 F            1    LIG   0.0000
  13 C13          0.2999     0.7894    -0.1941 C.ar         1    LIG   0.0000
  14 C14         -0.5691     1.7648    -0.6719 C.ar         1    LIG   0.0000
  15 C15         -1.2527     1.5317    -1.8607 C.ar         1    LIG   0.0000
  16 C16         -1.0756     0.3454    -2.5654 C.ar         1    LIG   0.0000
  17 C17         -0.2053    -0.6270    -2.0839 C.ar         1    LIG   0.0000
  18 C18          0.4808    -0.3987    -0.8957 C.ar         1    LIG   0.0000
  19 Cl19         1.5959    -1.6391    -0.2740 Cl           1    LIG   0.0000
  20 H            2.7234    -0.4449    -0.5015 H            1    LIG   0.0000
  21 H            3.1566     0.6874    -3.4309 H            1    LIG   0.0000
  22 H            5.2262    -0.0864    -2.3697 H            1    LIG   0.0000
  23 H           -0.2728     2.8591     3.4162 H            1    LIG   0.0000
  24 H            1.1611     3.0531     2.6593 H            1    LIG   0.0000
  25 H           -0.2316     3.1927     1.8181 H            1    LIG   0.0000
  26 H            0.7238     0.7371     2.9989 H            1    LIG   0.0000
  27 H           -0.6689     0.8767     2.1578 H            1    LIG   0.0000
  28 H            2.8033     0.3940     1.7222 H            1    LIG   0.0000
  29 H            2.8033     1.9285     1.1637 H            1    LIG   0.0000
  30 H            1.5778     1.1306    -1.7612 H            1    LIG   0.0000
  31 H            2.5041     2.3522    -1.1987 H            1    LIG   0.0000
  32 H            4.7462     1.5821    -0.0808 H            1    LIG   0.0000
  33 H            4.9653    -0.0354    -0.0319 H            1    LIG   0.0000
  34 H           -0.7001     2.6192    -0.1692 H            1    LIG   0.0000
  35 H           -1.8798     2.2262    -2.2134 H            1    LIG   0.0000
  36 H           -1.5742     0.1917    -3.4185 H            1    LIG   0.0000
  37 H           -0.0742    -1.4813    -2.5869 H            1    LIG   0.0000
@<TRIPOS>BOND
   1        1        2 1
   2        2        3 1
   3        3        4 1
   4        4        5 1
   5        5        6 1
   6        6        7 1
   7        7        8 1
   8        8        9 1
   9        9        5 1
  10        8       10 1
  11       10        7 1
  12       10       11 1
  13       10       12 1
  14        3       13 1
  15       13       14 ar
  16       14       15 ar
  17       15       16 ar
  18       16       17 ar
  19       17       18 ar
  20       18       13 ar
  21       18       19 1
  22        5       20 1
  23        7       21 1
  24        8       22 1
  25        1       23 1
  26        1       24 1
  27        1       25 1
  28        2       26 1
  29        2       27 1
  30        4       28 1
  31        4       29 1
  32        6       30 1
  33        6       31 1
  34        9       32 1
  35        9       33 1
  36       14       34 1
  37       15       35 1
  38       16       36 1
  39       17       37 1

@<TRIPOS>MOLECULE

  37   39
SMALL
USER_CHARGES
@<TRIPOS>ATOM
   1 C1           0.2272     2.7087     2.5633 C.3          1    LIG   0.0000
   2 C2           0.2650     1.2211     2.2537 C.3          1    LIG   0.0000
   3 N3           1.0000     1.0000     1.0000 N.pl3        1    LIG   0.0000
   4 C4           2.4700     1.0000     1.0000 C.3          1    LIG   0.0000
   5 C5           2.9760     0.5105    -0.3449 C.3          1    LIG   0.0000
   6 C6           4.4897     0.4861    -0.4120 C.3          1    LIG   0.0000
   7 C7           4.8072     0.4025    -1.8930 C.3          1    LIG   0.0000
   8 C8           3.6654     1.0826    -2.5722 C.3          1    LIG   0.0000
   9 C9           2.7151     1.4919    -1.4679 C.3          1    LIG   0.0000
  10 C10          4.0345    -0.3276    -2.9635 C.3          1    LIG   0.0000
  11 F11          4.6766    -0.4485    -4.1164 F            1    LIG   0.0000
  12 F12          3.2287    -1.3189    -2.5785 F            1    LIG   0.0000
  13 C13          0.2999     0.7894    -0.1941 C.ar         1    LIG   0.0000
  14 C14         -0.5691     1.7648    -0.6719 C.ar         1    LIG   0.0000
  15 C15         -1.2527     1.5317    -1.8607 C.ar         1    LIG   0.0000
  16 C16         -1.0756     0.3454    -2.5654 C.ar         1    LIG   0.0000
  17 C17         -0.2053    -0.6270    -2.0839 C.ar         1    LIG   0.0000
  18 C18          0.4808    -0.3987    -0.8957 C.ar         1    LIG   0.0000
  19 Cl19         1.5959    -1.6391    -0.2740 Cl           1    LIG   0.0000
  20 H            2.5957    -0.3884    -0.5625 H            1    LIG   0.0000
  21 H            5.7179     0.7193    -2.1580 H            1    LIG   0.0000
  22 H            3.9086     1.7971    -3.2282 H            1    LIG   0.0000
  23 H           -0.2728     2.8591     3.4162 H            1    LIG   0.0000
  24 H            1.1611     3.0531     2.6593 H            1    LIG   0.0000
  25 H           -0.2316     3.1927     1.8181 H            1    LIG   0.0000
  26 H            0.7238     0.7371     2.9989 H            1    LIG   0.0000
  27 H           -0.6689     0.8767     2.1578 H            1    LIG   0.0000
  28 H            2.8033     0.3940     1.7222 H            1    LIG   0.0000
  29 H            2.8033     1.9285     1.1637 H            1    LIG   0.0000
  30 H            4.8739     1.3198    -0.0153 H            1    LIG   0.0000
  31 H            4.8515    -0.3107     0.0720 H            1    LIG   0.0000
  32 H            1.7666     1.4273    -1.7781 H            1    LIG   0.0000
  33 H            2.9051     2.4271    -1.1690 H            1    LIG   0.0000
  34 H           -0.7001     2.6192    -0.1692 H            1    LIG   0.0000
  35 H           -1.8798     2.2262    -2.2134 H            1    LIG   0.0000
  36 H           -1.5742     0.1917    -3.4185 H            1    LIG   0.0000
  37 H           -0.0742    -1.4813    -2.5869 H            1    LIG   0.0000
@<TRIPOS>BOND
   1        1        2 1
   2        2        3 1
   3        3        4 1
   4        4        5 1
   5        5        6 1
   6        6        7 1
   7        7        8 1
   8        8        9 1
   9        9        5 1
  10        8       10 1
  11       10        7 1
  12       10       11 1
  13       10       12 1
  14        3       13 1
  15       13       14 ar
  16       14       15 ar
  17       15       16 ar
  18       16       17 ar
  19       17       18 ar
  20       18       13 ar
  21       18       19 1
  22        5       20 1
  23        7       21 1
  24        8       22 1
  25        1       23 1
  26        1       24 1
  27        1       25 1
  28        2       26 1
  29        2       27 1
  30        4       28 1
  31        4       29 1
  32        6       30 1
  33        6       31 1
  34        9       32 1
  35        9       33 1
  36       14       34 1
  37       15       35 1
  38       16       36 1
  39       17       37 1

@<TRIPOS>MOLECULE

  37   39
SMALL
USER_CHARGES
@<TRIPOS>ATOM
   1 C1           0.2272     2.7087     2.5633 C.3          1    LIG   0.0000
   2 C2           0.2650     1.2211     2.2537 C.3          1    LIG   0.0000
   3 N3           1.0000     1.0000     1.0000 N.pl3        1    LIG   0.0000
   4 C4           2.4700     1.0000     1.0000 C.3          1    LIG   0.0000
   5 C5           2.9763     0.5102    -0.3456 C.3          1    LIG   0.0000
   6 C6           2.4831    -0.9016    -0.6199 C.3          1    LIG   0.0000
   7 C7           3.5630    -1.5334    -1.4656 C.3          1    LIG   0.0000
   8 C8           4.7296    -0.5889    -1.5243 C.3          1    LIG   0.0000
   9 C9           4.4659     0.2632    -0.2990 C.3          1    LIG   0.0000
  10 C10          3.9486    -0.8965    -2.7721 C.3          1    LIG   0.0000
  11 F11          3.1764     0.0735    -3.2599 F            1    LIG   0.0000
  12 F12          4.5887    -1.6720    -3.6390 F            1    LIG   0.0000
  13 C13          0.2999     0.7894    -0.1941 C.ar         1    LIG   0.0000
  14 C14         -0.5697    -0.2900    -0.3092 C.ar         1    LIG   0.0000
  15 C15         -1.2536    -0.4774    -1.5059 C.ar         1    LIG   0.0000
  16 C16         -1.0759     0.3959    -2.5741 C.ar         1    LIG   0.0000
  17 C17         -0.2054     1.4742    -2.4544 C.ar         1    LIG   0.0000
  18 C18          0.4808     1.6660    -1.2597 C.ar         1    LIG   0.0000
  19 Cl19         1.5963     3.0440    -1.1000 Cl           1    LIG   0.0000
  20 H            2.7289     1.1377    -1.0839 H            1    LIG   0.0000
  21 H            3.7502    -2.5079    -1.3418 H            1    LIG   0.0000
  22 H            5.6127    -1.0570    -1.4914 H            1    LIG   0.0000
  23 H           -0.2728     2.8591     3.4162 H            1    LIG   0.0000
  24 H            1.1611     3.0531     2.6593 H            1    LIG   0.0000
  25 H           -0.2316     3.1927     1.8181 H            1    LIG   0.0000
  26 H            0.7238     0.7371     2.9989 H            1    LIG   0.0000
  27 H           -0.6689     0.8767     2.1578 H            1    LIG   0.0000
  28 H            2.8033     0.3940     1.7222 H            1    LIG   0.0000
  29 H            2.8033     1.9285     1.1637 H            1    LIG   0.0000
  30 H            2.3663    -1.4058     0.2357 H            1    LIG   0.0000
  31 H            1.6150    -0.8809    -1.1158 H            1    LIG   0.0000
  32 H            4.9716     1.1245    -0.3484 H            1    LIG   0.0000
  33 H            4.7201    -0.2251     0.5359 H            1    LIG   0.0000
  34 H           -0.7010    -0.9208     0.4555 H            1    LIG   0.0000
  35 H           -1.8814    -1.2501    -1.5995 H            1    LIG   0.0000
  36 H           -1.5741     0.2483    -3.4285 H            1    LIG   0.0000
  37 H           -0.0743     2.1050    -3.2191 H            1    LIG   0.0000
@<TRIPOS>BOND
   1        1        2 1
   2        2        3 1
   3        3        4 1
   4        4        5 1
   5        5        6 1
   6        6        7 1
   7        7        8 1
   8        8        9 1
   9        9        5 1
  10        8       10 1
  11       10        7 1
  12       10       11 1
  13       10       12 1
  14        3       13 1
  15       13       14 ar
  16       14       15 ar
  17       15       16 ar
  18       16       17 ar
  19       17       18 ar
  20       18       13 ar
  21       18       19 1
  22        5       20 1
  23        7       21 1
  24        8       22 1
  25        1       23 1
  26        1       24 1
  27        1       25 1
  28        2       26 1
  29        2       27 1
  30        4       28 1
  31        4       29 1
  32        6       30 1
  33        6       31 1
  34        9       32 1
  35        9       33 1
  36       14       34 1
  37       15       35 1
  38       16       36 1
  39       17       37 1

@<TRIPOS>MOLECULE

  37   39
SMALL
USER_CHARGES
@<TRIPOS>ATOM
   1 C1           0.2272     2.7087     2.5633 C.3          1    LIG   0.0000
   2 C2           0.2650     1.2211     2.2537 C.3          1    LIG   0.0000
   3 N3           1.0000     1.0000     1.0000 N.pl3        1    LIG   0.0000
   4 C4           2.4700     1.0000     1.0000 C.3          1    LIG   0.0000
   5 C5           2.9765     1.0000    -0.4327 C.3          1    LIG   0.0000
   6 C6           4.4891     1.0000    -0.4937 C.3          1    LIG   0.0000
   7 C7           4.8532     0.4383    -1.8568 C.3          1    LIG   0.0000
   8 C8           3.6767    -0.3964    -2.2785 C.3          1    LIG   0.0000
   9 C9           2.6970    -0.3204    -1.1209 C.3          1    LIG   0.0000
  10 C10          5.0177    -1.0447    -2.0803 C.3          1    LIG   0.0000
  11 F11          5.6703    -1.3821    -3.1895 F            1    LIG   0.0000
  12 F12          5.1727    -1.7977    -0.9942 F            1    LIG   0.0000
  13 C13          0.2999     0.7894    -0.1941 C.ar         1    LIG   0.0000
  14 C14         -0.5697    -0.2900    -0.3092 C.ar         1    LIG   0.0000
  15 C15         -1.2536    -0.4774    -1.5059 C.ar         1    LIG   0.0000
  16 C16         -1.0759     0.3959    -2.5741 C.ar         1    LIG   0.0000
  17 C17         -0.2054     1.4742    -2.4544 C.ar         1    LIG   0.0000
  18 C18          0.4808     1.6660    -1.2597 C.ar         1    LIG   0.0000
  19 Cl19         1.5963     3.0440    -1.1000 Cl           1    LIG   0.0000
  20 H            2.5943     1.7652    -0.9508 H            1    LIG   0.0000
  21 H            5.2518     1.0614    -2.5298 H            1    LIG   0.0000
  22 H            3.3266    -0.2949    -3.2097 H            1    LIG   0.0000
  23 H           -0.2728     2.8591     3.4162 H            1    LIG   0.0000
  24 H            1.1611     3.0531     2.6593 H            1    LIG   0.0000
  25 H           -0.2316     3.1927     1.8181 H            1    LIG   0.0000
  26 H            0.7238     0.7371     2.9989 H            1    LIG   0.0000
  27 H           -0.6689     0.8767     2.1578 H            1    LIG   0.0000
  28 H            2.8033     0.1835     1.4714 H            1    LIG   0.0000
  29 H            2.8033     1.8165     1.4714 H            1    LIG   0.0000
  30 H            4.8407     1.9311    -0.3964 H            1    LIG   0.0000
  31 H            4.8661     0.4238     0.2315 H            1    LIG   0.0000
  32 H            2.8446    -1.0811    -0.4888 H            1    LIG   0.0000
  33 H            1.7560    -0.3453    -1.4584 H            1    LIG   0.0000
  34 H           -0.7010    -0.9208     0.4555 H            1    LIG   0.0000
  35 H           -1.8814    -1.2501    -1.5995 H            1    LIG   0.0000
  36 H           -1.5741     0.2483    -3.4285 H            1    LIG   0.0000
  37 H           -0.0743     2.1050    -3.2191 H            1    LIG   0.0000
@<TRIPOS>BOND
   1        1        2 1
   2        2        3 1
   3        3        4 1
   4        4        5 1
   5        5        6 1
   6        6        7 1
   7        7        8 1
   8        8        9 1
   9        9        5 1
  10        8       10 1
  11       10        7 1
  12       10       11 1
  13       10       12 1
  14        3       13 1
  15       13       14 ar
  16       14       15 ar
  17       15       16 ar
  18       16       17 ar
  19       17       18 ar
  20       18       13 ar
  21       18       19 1
  22        5       20 1
  23        7       21 1
  24        8       22 1
  25        1       23 1
  26        1       24 1
  27        1       25 1
  28        2       26 1
  29        2       27 1
  30        4       28 1
  31        4       29 1
  32        6       30 1
  33        6       31 1
  34        9       32 1
  35        9       33 1
  36       14       34 1
  37       15       35 1
  38       16       36 1
  39       17       37 1

