@<TRIPOS>MOLECULE
*****
 37 39 0 0 0
SMALL
USER_CHARGES

@<TRIPOS>ATOM
      1 C1          0.2272    2.7087    2.5633 C.3     1  LIG1        0.0000
      2 C2          0.2650    1.2211    2.2537 C.3     1  LIG1        0.0000
      3 N3          1.0000    1.0000    1.0000 N.pl3   1  LIG1        0.0000
      4 C4          2.4700    1.0000    1.0000 C.3     1  LIG1        0.0000
      5 C5          2.9765   -0.3463    1.4900 C.3     1  LIG1        0.0000
      6 C6          2.5011   -1.4805    0.6073 C.3     1  LIG1        0.0000
      7 C7          3.4809   -2.6200    0.8256 C.3     1  LIG1        0.0000
      8 C8          4.7534   -1.9751    1.2985 C.3     1  LIG1        0.0000
      9 C9          4.4722   -0.4830    1.2915 C.3     1  LIG1        0.0000
     10 C10         4.7424   -2.7430    0.0070 C.3     1  LIG1        0.0000
     11 F11         5.3231   -3.9396    0.0366 F       1  LIG1        0.0000
     12 F12         4.7935   -2.0362   -1.1193 F       1  LIG1        0.0000
     13 C13         0.2999    0.7894   -0.1941 C.ar    1  LIG1        0.0000
     14 C14        -0.5697   -0.2900   -0.3092 C.ar    1  LIG1        0.0000
     15 C15        -1.2536   -0.4774   -1.5059 C.ar    1  LIG1        0.0000
     16 C16        -1.0759    0.3959   -2.5741 C.ar    1  LIG1        0.0000
     17 C17        -0.2054    1.4742   -2.4544 C.ar    1  LIG1        0.0000
     18 C18         0.4808    1.6660   -1.2597 C.ar    1  LIG1        0.0000
     19 Cl19        1.5963    3.0440   -1.1000 Cl      1  LIG1        0.0000
     20 H           2.7234   -0.5015    2.4449 H       1  LIG1        0.0000
     21 H           3.1566   -3.4309    1.3126 H       1  LIG1        0.0000
     22 H           5.2262   -2.3697    2.0864 H       1  LIG1        0.0000
     23 H          -0.2728    2.8591    3.4162 H       1  LIG1        0.0000
     24 H           1.1611    3.0531    2.6593 H       1  LIG1        0.0000
     25 H          -0.2316    3.1927    1.8181 H       1  LIG1        0.0000
     26 H           0.7238    0.7371    2.9989 H       1  LIG1        0.0000
     27 H          -0.6689    0.8767    2.1578 H       1  LIG1        0.0000
     28 H           2.8033    1.7222    1.6060 H       1  LIG1        0.0000
     29 H           2.8033    1.1637    0.0715 H       1  LIG1        0.0000
     30 H           1.5778   -1.7612    0.8694 H       1  LIG1        0.0000
     31 H           2.5041   -1.1987   -0.3522 H       1  LIG1        0.0000
     32 H           4.7462   -0.0808    0.4179 H       1  LIG1        0.0000
     33 H           4.9653   -0.0319    2.0354 H       1  LIG1        0.0000
     34 H          -0.7010   -0.9208    0.4555 H       1  LIG1        0.0000
     35 H          -1.8814   -1.2501   -1.5995 H       1  LIG1        0.0000
     36 H          -1.5741    0.2483   -3.4285 H       1  LIG1        0.0000
     37 H          -0.0743    2.1050   -3.2191 H       1  LIG1        0.0000
@<TRIPOS>BOND
     1     1     2    1
     2     2     3    1
     3     3     4    1
     4     4     5    1
     5     5     6    1
     6     6     7    1
     7     7     8    1
     8     8     9    1
     9     9     5    1
    10     8    10    1
    11    10     7    1
    12    10    11    1
    13    10    12    1
    14     3    13    1
    15    13    14   ar
    16    14    15   ar
    17    15    16   ar
    18    16    17   ar
    19    17    18   ar
    20    18    13   ar
    21    18    19    1
    22     5    20    1
    23     7    21    1
    24     8    22    1
    25     1    23    1
    26     1    24    1
    27     1    25    1
    28     2    26    1
    29     2    27    1
    30     4    28    1
    31     4    29    1
    32     6    30    1
    33     6    31    1
    34     9    32    1
    35     9    33    1
    36    14    34    1
    37    15    35    1
    38    16    36    1
    39    17    37    1
