@<TRIPOS>MOLECULE
*****
 37 39 0 0 0
SMALL
USER_CHARGES

@<TRIPOS>ATOM
      1 C1          0.2272   -0.0710    3.0534 C.3     1  LIG1        0.0000
      2 C2          0.2650    1.2211    2.2537 C.3     1  LIG1        0.0000
      3 N3          1.0000    1.0000    1.0000 N.pl3   1  LIG1        0.0000
      4 C4          2.4700    1.0000    1.0000 C.3     1  LIG1        0.0000
      5 C5          2.9760    2.4313    1.0000 C.3     1  LIG1        0.0000
      6 C6          4.4897    2.5026    1.0000 C.3     1  LIG1        0.0000
      7 C7          4.8072    3.9229    1.4280 C.3     1  LIG1        0.0000
      8 C8          3.6654    4.3286    2.2994 C.3     1  LIG1        0.0000
      9 C9          2.7151    3.1508    2.3063 C.3     1  LIG1        0.0000
     10 C10         4.0345    5.1786    1.1081 C.3     1  LIG1        0.0000
     11 F11         4.6766    6.3033    1.3888 F       1  LIG1        0.0000
     12 F12         3.2287    5.1558    0.0449 F       1  LIG1        0.0000
     13 C13         0.2999    0.7894   -0.1941 C.ar    1  LIG1        0.0000
     14 C14        -0.5697   -0.2900   -0.3092 C.ar    1  LIG1        0.0000
     15 C15        -1.2536   -0.4774   -1.5059 C.ar    1  LIG1        0.0000
     16 C16        -1.0759    0.3959   -2.5741 C.ar    1  LIG1        0.0000
     17 C17        -0.2054    1.4742   -2.4544 C.ar    1  LIG1        0.0000
     18 C18         0.4808    1.6660   -1.2597 C.ar    1  LIG1        0.0000
     19 Cl19        1.5963    3.0440   -1.1000 Cl      1  LIG1        0.0000
     20 H           2.5957    2.9431    0.2297 H       1  LIG1        0.0000
     21 H           5.7179    4.0635    1.8163 H       1  LIG1        0.0000
     22 H           3.9086    4.7006    3.1952 H       1  LIG1        0.0000
     23 H          -0.2728    0.0794    3.9063 H       1  LIG1        0.0000
     24 H          -0.2316   -0.7806    2.5188 H       1  LIG1        0.0000
     25 H           1.1611   -0.3618    3.2614 H       1  LIG1        0.0000
     26 H          -0.6689    1.5118    2.0458 H       1  LIG1        0.0000
     27 H           0.7238    1.9307    2.7884 H       1  LIG1        0.0000
     28 H           2.8033    0.5286    0.1835 H       1  LIG1        0.0000
     29 H           2.8033    0.5286    1.8165 H       1  LIG1        0.0000
     30 H           4.8739    1.8447    1.6477 H       1  LIG1        0.0000
     31 H           4.8515    2.3204    0.0857 H       1  LIG1        0.0000
     32 H           1.7666    3.4644    2.3517 H       1  LIG1        0.0000
     33 H           2.9051    2.5501    3.0828 H       1  LIG1        0.0000
     34 H          -0.7010   -0.9208    0.4555 H       1  LIG1        0.0000
     35 H          -1.8814   -1.2501   -1.5995 H       1  LIG1        0.0000
     36 H          -1.5741    0.2483   -3.4285 H       1  LIG1        0.0000
     37 H          -0.0743    2.1050   -3.2191 H       1  LIG1        0.0000
@<TRIPOS>BOND
     1     1     2    1
     2     2     3    1
     3     3     4    1
     4     4     5    1
     5     5     6    1
     6     6     7    1
     7     7     8    1
     8     8     9    1
     9     9     5    1
    10     8    10    1
    11    10     7    1
    12    10    11    1
    13    10    12    1
    14     3    13    1
    15    13    14   ar
    16    14    15   ar
    17    15    16   ar
    18    16    17   ar
    19    17    18   ar
    20    18    13   ar
    21    18    19    1
    22     5    20    1
    23     7    21    1
    24     8    22    1
    25     1    23    1
    26     1    24    1
    27     1    25    1
    28     2    26    1
    29     2    27    1
    30     4    28    1
    31     4    29    1
    32     6    30    1
    33     6    31    1
    34     9    32    1
    35     9    33    1
    36    14    34    1
    37    15    35    1
    38    16    36    1
    39    17    37    1
