@<TRIPOS>MOLECULE
*****
 37 39 0 0 0
SMALL
USER_CHARGES

@<TRIPOS>ATOM
      1 C1          0.2272    2.7087    2.5633 C.3     1  LIG1        0.0000
      2 C2          0.2650    1.2211    2.2537 C.3     1  LIG1        0.0000
      3 N3          1.0000    1.0000    1.0000 N.pl3   1  LIG1        0.0000
      4 C4          2.4700    1.0000    1.0000 C.3     1  LIG1        0.0000
      5 C5          2.9765    0.5100   -0.3463 C.3     1  LIG1        0.0000
      6 C6          2.5011    1.3927   -1.4805 C.3     1  LIG1        0.0000
      7 C7          3.4809    1.1744   -2.6200 C.3     1  LIG1        0.0000
      8 C8          4.7534    0.7015   -1.9751 C.3     1  LIG1        0.0000
      9 C9          4.4722    0.7085   -0.4830 C.3     1  LIG1        0.0000
     10 C10         4.7424    1.9930   -2.7430 C.3     1  LIG1        0.0000
     11 F11         5.3231    1.9634   -3.9396 F       1  LIG1        0.0000
     12 F12         4.7935    3.1193   -2.0362 F       1  LIG1        0.0000
     13 C13         0.2999    0.7894   -0.1941 C.ar    1  LIG1        0.0000
     14 C14        -0.5691    1.7648   -0.6719 C.ar    1  LIG1        0.0000
     15 C15        -1.2527    1.5317   -1.8607 C.ar    1  LIG1        0.0000
     16 C16        -1.0756    0.3454   -2.5654 C.ar    1  LIG1        0.0000
     17 C17        -0.2053   -0.6270   -2.0839 C.ar    1  LIG1        0.0000
     18 C18         0.4808   -0.3987   -0.8957 C.ar    1  LIG1        0.0000
     19 Cl19        1.5959   -1.6391   -0.2740 Cl      1  LIG1        0.0000
     20 H           2.7234   -0.4449   -0.5015 H       1  LIG1        0.0000
     21 H           3.1566    0.6874   -3.4309 H       1  LIG1        0.0000
     22 H           5.2262   -0.0864   -2.3697 H       1  LIG1        0.0000
     23 H          -0.2728    2.8591    3.4162 H       1  LIG1        0.0000
     24 H           1.1611    3.0531    2.6593 H       1  LIG1        0.0000
     25 H          -0.2316    3.1927    1.8181 H       1  LIG1        0.0000
     26 H           0.7238    0.7371    2.9989 H       1  LIG1        0.0000
     27 H          -0.6689    0.8767    2.1578 H       1  LIG1        0.0000
     28 H           2.8033    0.3940    1.7222 H       1  LIG1        0.0000
     29 H           2.8033    1.9285    1.1637 H       1  LIG1        0.0000
     30 H           1.5778    1.1306   -1.7612 H       1  LIG1        0.0000
     31 H           2.5041    2.3522   -1.1987 H       1  LIG1        0.0000
     32 H           4.7462    1.5821   -0.0808 H       1  LIG1        0.0000
     33 H           4.9653   -0.0354   -0.0319 H       1  LIG1        0.0000
     34 H          -0.7001    2.6192   -0.1692 H       1  LIG1        0.0000
     35 H          -1.8798    2.2262   -2.2134 H       1  LIG1        0.0000
     36 H          -1.5742    0.1917   -3.4185 H       1  LIG1        0.0000
     37 H          -0.0742   -1.4813   -2.5869 H       1  LIG1        0.0000
@<TRIPOS>BOND
     1     1     2    1
     2     2     3    1
     3     3     4    1
     4     4     5    1
     5     5     6    1
     6     6     7    1
     7     7     8    1
     8     8     9    1
     9     9     5    1
    10     8    10    1
    11    10     7    1
    12    10    11    1
    13    10    12    1
    14     3    13    1
    15    13    14   ar
    16    14    15   ar
    17    15    16   ar
    18    16    17   ar
    19    17    18   ar
    20    18    13   ar
    21    18    19    1
    22     5    20    1
    23     7    21    1
    24     8    22    1
    25     1    23    1
    26     1    24    1
    27     1    25    1
    28     2    26    1
    29     2    27    1
    30     4    28    1
    31     4    29    1
    32     6    30    1
    33     6    31    1
    34     9    32    1
    35     9    33    1
    36    14    34    1
    37    15    35    1
    38    16    36    1
    39    17    37    1
