@<TRIPOS>MOLECULE

  31   32
SMALL
USER_CHARGES
@<TRIPOS>ATOM
   1 C1           2.9767     2.4331     1.0000 C.3          1    LIG   0.0000
   2 C2           2.4700     1.0000     1.0000 C.3          1    LIG   0.0000
   3 N3           1.0000     1.0000     1.0000 N.am         1    LIG   0.0000
   4 C4           0.2650     1.0000    -0.2731 C.3          1    LIG   0.0000
   5 C5           0.0117    -0.4331    -0.7118 C.3          1    LIG   0.0000
   6 C6           0.3150     1.0000     2.1865 C.2          1    LIG   0.0000
   7 O7           0.9150     1.0000     3.2257 O.2          1    LIG   0.0000
   8 C8          -1.1352     1.0000     2.1865 C.2          1    LIG   0.0000
   9 C9          -1.9302    -0.1051     2.1881 C.2          1    LIG   0.0000
  10 O10         -3.1661     0.3286     2.1857 O.2          1    LIG   0.0000
  11 C11         -3.2449     1.6416     2.1833 C.ar         1    LIG   0.0000
  12 C12         -4.3352     2.5058     2.1835 C.ar         1    LIG   0.0000
  13 C13         -4.1696     3.8871     2.1882 C.ar         1    LIG   0.0000
  14 C14         -2.8835     4.4193     2.1923 C.ar         1    LIG   0.0000
  15 F15         -2.7271     5.7463     2.1990 F            1    LIG   0.0000
  16 C16         -1.8092     3.5292     2.1918 C.ar         1    LIG   0.0000
  17 C17         -1.9641     2.1419     2.1865 C.ar         1    LIG   0.0000
  18 H            3.9767     2.4331     1.0000 H            1    LIG   0.0000
  19 H            2.6433     2.9045     0.1835 H            1    LIG   0.0000
  20 H            2.6433     2.9045     1.8165 H            1    LIG   0.0000
  21 H            2.8033     0.5286     0.1835 H            1    LIG   0.0000
  22 H            2.8033     0.5286     1.8165 H            1    LIG   0.0000
  23 H            0.8054     1.4714    -0.9700 H            1    LIG   0.0000
  24 H           -0.6088     1.4714    -0.1535 H            1    LIG   0.0000
  25 H           -0.4883    -0.4331    -1.5779 H            1    LIG   0.0000
  26 H            0.8854    -0.9045    -0.8314 H            1    LIG   0.0000
  27 H           -0.5288    -0.9045    -0.0149 H            1    LIG   0.0000
  28 H           -1.6301    -1.0590     2.1906 H            1    LIG   0.0000
  29 H           -5.2599     2.1251     2.1802 H            1    LIG   0.0000
  30 H           -4.9663     4.4914     2.1887 H            1    LIG   0.0000
  31 H           -0.8820     3.9037     2.1953 H            1    LIG   0.0000
@<TRIPOS>BOND
   1        1        2 1
   2        2        3 1
   3        3        4 1
   4        4        5 1
   5        3        6 am
   6        6        7 2
   7        6        8 1
   8        8        9 2
   9        9       10 1
  10       10       11 1
  11       11       12 ar
  12       12       13 ar
  13       13       14 ar
  14       14       15 1
  15       14       16 ar
  16       16       17 ar
  17       17        8 1
  18       17       11 ar
  19        1       18 1
  20        1       19 1
  21        1       20 1
  22        2       21 1
  23        2       22 1
  24        4       23 1
  25        4       24 1
  26        5       25 1
  27        5       26 1
  28        5       27 1
  29        9       28 1
  30       12       29 1
  31       13       30 1
  32       16       31 1

@<TRIPOS>MOLECULE

  31   32
SMALL
USER_CHARGES
@<TRIPOS>ATOM
   1 C1           2.9767     2.4331     1.0000 C.3          1    LIG   0.0000
   2 C2           2.4700     1.0000     1.0000 C.3          1    LIG   0.0000
   3 N3           1.0000     1.0000     1.0000 N.am         1    LIG   0.0000
   4 C4           0.2650     1.0000    -0.2731 C.3          1    LIG   0.0000
   5 C5           0.0117    -0.4331    -0.7118 C.3          1    LIG   0.0000
   6 C6           0.3150     1.0000     2.1865 C.2          1    LIG   0.0000
   7 O7           0.9150     1.0000     3.2257 O.2          1    LIG   0.0000
   8 C8          -1.1352     1.0000     2.1865 C.2          1    LIG   0.0000
   9 C9          -1.9302     2.1051     2.1848 C.2          1    LIG   0.0000
  10 O10         -3.1661     1.6714     2.1872 O.2          1    LIG   0.0000
  11 C11         -3.2449     0.3584     2.1897 C.ar         1    LIG   0.0000
  12 C12         -4.3352    -0.5058     2.1894 C.ar         1    LIG   0.0000
  13 C13         -4.1696    -1.8871     2.1847 C.ar         1    LIG   0.0000
  14 C14         -2.8835    -2.4193     2.1806 C.ar         1    LIG   0.0000
  15 F15         -2.7271    -3.7463     2.1739 F            1    LIG   0.0000
  16 C16         -1.8092    -1.5292     2.1812 C.ar         1    LIG   0.0000
  17 C17         -1.9641    -0.1419     2.1865 C.ar         1    LIG   0.0000
  18 H            3.9767     2.4331     1.0000 H            1    LIG   0.0000
  19 H            2.6433     2.9045     0.1835 H            1    LIG   0.0000
  20 H            2.6433     2.9045     1.8165 H            1    LIG   0.0000
  21 H            2.8033     0.5286     0.1835 H            1    LIG   0.0000
  22 H            2.8033     0.5286     1.8165 H            1    LIG   0.0000
  23 H            0.8054     1.4714    -0.9700 H            1    LIG   0.0000
  24 H           -0.6088     1.4714    -0.1535 H            1    LIG   0.0000
  25 H           -0.4883    -0.4331    -1.5779 H            1    LIG   0.0000
  26 H            0.8854    -0.9045    -0.8314 H            1    LIG   0.0000
  27 H           -0.5288    -0.9045    -0.0149 H            1    LIG   0.0000
  28 H           -1.6301     3.0590     2.1823 H            1    LIG   0.0000
  29 H           -5.2599    -0.1251     2.1927 H            1    LIG   0.0000
  30 H           -4.9663    -2.4914     2.1842 H            1    LIG   0.0000
  31 H           -0.8820    -1.9037     2.1776 H            1    LIG   0.0000
@<TRIPOS>BOND
   1        1        2 1
   2        2        3 1
   3        3        4 1
   4        4        5 1
   5        3        6 am
   6        6        7 2
   7        6        8 1
   8        8        9 2
   9        9       10 1
  10       10       11 1
  11       11       12 ar
  12       12       13 ar
  13       13       14 ar
  14       14       15 1
  15       14       16 ar
  16       16       17 ar
  17       17        8 1
  18       17       11 ar
  19        1       18 1
  20        1       19 1
  21        1       20 1
  22        2       21 1
  23        2       22 1
  24        4       23 1
  25        4       24 1
  26        5       25 1
  27        5       26 1
  28        5       27 1
  29        9       28 1
  30       12       29 1
  31       13       30 1
  32       16       31 1

@<TRIPOS>MOLECULE

  31   32
SMALL
USER_CHARGES
@<TRIPOS>ATOM
   1 C1           2.9767     2.4331     1.0000 C.3          1    LIG   0.0000
   2 C2           2.4700     1.0000     1.0000 C.3          1    LIG   0.0000
   3 N3           1.0000     1.0000     1.0000 N.am         1    LIG   0.0000
   4 C4           0.2650     1.0000    -0.2731 C.3          1    LIG   0.0000
   5 C5           0.0117    -0.4331    -0.7118 C.3          1    LIG   0.0000
   6 C6           0.3150     1.0000     2.1865 C.2          1    LIG   0.0000
   7 O7           0.7944     0.4804     3.1561 O.2          1    LIG   0.0000
   8 C8          -0.9895     1.6279     2.2706 C.2          1    LIG   0.0000
   9 C9          -1.9989     1.2554     3.1047 C.2          1    LIG   0.0000
  10 O10         -2.9957     2.0708     2.8659 O.2          1    LIG   0.0000
  11 C11         -2.7172     2.9562     1.9339 C.ar         1    LIG   0.0000
  12 C12         -3.4673     3.9898     1.3820 C.ar         1    LIG   0.0000
  13 C13         -2.9482     4.8182     0.3922 C.ar         1    LIG   0.0000
  14 C14         -1.6480     4.6095    -0.0585 C.ar         1    LIG   0.0000
  15 F15         -1.1510     5.4079    -1.0078 F            1    LIG   0.0000
  16 C16         -0.9193     3.5659     0.5126 C.ar         1    LIG   0.0000
  17 C17         -1.4305     2.7286     1.5056 C.ar         1    LIG   0.0000
  18 H            3.9767     2.4331     1.0000 H            1    LIG   0.0000
  19 H            2.6433     2.9045     0.1835 H            1    LIG   0.0000
  20 H            2.6433     2.9045     1.8165 H            1    LIG   0.0000
  21 H            2.8033     0.5286     0.1835 H            1    LIG   0.0000
  22 H            2.8033     0.5286     1.8165 H            1    LIG   0.0000
  23 H            0.8054     1.4714    -0.9700 H            1    LIG   0.0000
  24 H           -0.6088     1.4714    -0.1535 H            1    LIG   0.0000
  25 H           -0.4883    -0.4331    -1.5779 H            1    LIG   0.0000
  26 H            0.8854    -0.9045    -0.8314 H            1    LIG   0.0000
  27 H           -0.5288    -0.9045    -0.0149 H            1    LIG   0.0000
  28 H           -1.9825     0.5075     3.7682 H            1    LIG   0.0000
  29 H           -4.4018     4.1409     1.7044 H            1    LIG   0.0000
  30 H           -3.5036     5.5560     0.0085 H            1    LIG   0.0000
  31 H            0.0159     3.4099     0.1947 H            1    LIG   0.0000
@<TRIPOS>BOND
   1        1        2 1
   2        2        3 1
   3        3        4 1
   4        4        5 1
   5        3        6 am
   6        6        7 2
   7        6        8 1
   8        8        9 2
   9        9       10 1
  10       10       11 1
  11       11       12 ar
  12       12       13 ar
  13       13       14 ar
  14       14       15 1
  15       14       16 ar
  16       16       17 ar
  17       17        8 1
  18       17       11 ar
  19        1       18 1
  20        1       19 1
  21        1       20 1
  22        2       21 1
  23        2       22 1
  24        4       23 1
  25        4       24 1
  26        5       25 1
  27        5       26 1
  28        5       27 1
  29        9       28 1
  30       12       29 1
  31       13       30 1
  32       16       31 1

@<TRIPOS>MOLECULE

  31   32
SMALL
USER_CHARGES
@<TRIPOS>ATOM
   1 C1           2.9767     2.4331     1.0000 C.3          1    LIG   0.0000
   2 C2           2.4700     1.0000     1.0000 C.3          1    LIG   0.0000
   3 N3           1.0000     1.0000     1.0000 N.am         1    LIG   0.0000
   4 C4           0.2650     1.0000    -0.2731 C.3          1    LIG   0.0000
   5 C5           0.0117    -0.4331    -0.7118 C.3          1    LIG   0.0000
   6 C6           0.3150     1.0000     2.1865 C.2          1    LIG   0.0000
   7 O7           0.7944     0.4804     3.1561 O.2          1    LIG   0.0000
   8 C8          -0.9895     1.6279     2.2706 C.2          1    LIG   0.0000
   9 C9          -1.4104     2.6890     1.5287 C.2          1    LIG   0.0000
  10 O10         -2.6370     2.9439     1.9109 O.2          1    LIG   0.0000
  11 C11         -3.0573     2.1268     2.8520 C.ar         1    LIG   0.0000
  12 C12         -4.2686     2.0374     3.5305 C.ar         1    LIG   0.0000
  13 C13         -4.4897     1.0655     4.5010 C.ar         1    LIG   0.0000
  14 C14         -3.4762     0.1605     4.8025 C.ar         1    LIG   0.0000
  15 F15         -3.6918    -0.7734     5.7336 F            1    LIG   0.0000
  16 C16         -2.2723     0.2738     4.1068 C.ar         1    LIG   0.0000
  17 C17         -2.0397     1.2452     3.1317 C.ar         1    LIG   0.0000
  18 H            3.9767     2.4331     1.0000 H            1    LIG   0.0000
  19 H            2.6433     2.9045     0.1835 H            1    LIG   0.0000
  20 H            2.6433     2.9045     1.8165 H            1    LIG   0.0000
  21 H            2.8033     0.5286     0.1835 H            1    LIG   0.0000
  22 H            2.8033     0.5286     1.8165 H            1    LIG   0.0000
  23 H            0.8054     1.4714    -0.9700 H            1    LIG   0.0000
  24 H           -0.6088     1.4714    -0.1535 H            1    LIG   0.0000
  25 H           -0.4883    -0.4331    -1.5779 H            1    LIG   0.0000
  26 H            0.8854    -0.9045    -0.8314 H            1    LIG   0.0000
  27 H           -0.5288    -0.9045    -0.0149 H            1    LIG   0.0000
  28 H           -0.8869     3.1771     0.8304 H            1    LIG   0.0000
  29 H           -4.9977     2.6872     3.3153 H            1    LIG   0.0000
  30 H           -5.3678     1.0177     4.9772 H            1    LIG   0.0000
  31 H           -1.5393    -0.3732     4.3171 H            1    LIG   0.0000
@<TRIPOS>BOND
   1        1        2 1
   2        2        3 1
   3        3        4 1
   4        4        5 1
   5        3        6 am
   6        6        7 2
   7        6        8 1
   8        8        9 2
   9        9       10 1
  10       10       11 1
  11       11       12 ar
  12       12       13 ar
  13       13       14 ar
  14       14       15 1
  15       14       16 ar
  16       16       17 ar
  17       17        8 1
  18       17       11 ar
  19        1       18 1
  20        1       19 1
  21        1       20 1
  22        2       21 1
  23        2       22 1
  24        4       23 1
  25        4       24 1
  26        5       25 1
  27        5       26 1
  28        5       27 1
  29        9       28 1
  30       12       29 1
  31       13       30 1
  32       16       31 1

@<TRIPOS>MOLECULE

  31   32
SMALL
USER_CHARGES
@<TRIPOS>ATOM
   1 C1           2.9767     2.4331     1.0000 C.3          1    LIG   0.0000
   2 C2           2.4700     1.0000     1.0000 C.3          1    LIG   0.0000
   3 N3           1.0000     1.0000     1.0000 N.am         1    LIG   0.0000
   4 C4           0.2650     1.0000    -0.2731 C.3          1    LIG   0.0000
   5 C5           0.0117     2.4331    -0.7118 C.3          1    LIG   0.0000
   6 C6           0.3150     1.0000     2.1865 C.2          1    LIG   0.0000
   7 O7           0.7944     1.5196     3.1561 O.2          1    LIG   0.0000
   8 C8          -0.9895     0.3721     2.2706 C.2          1    LIG   0.0000
   9 C9          -1.4093    -0.6910     1.5310 C.2          1    LIG   0.0000
  10 O10         -2.6375    -0.9430     1.9099 O.2          1    LIG   0.0000
  11 C11         -3.0595    -0.1228     2.8476 C.ar         1    LIG   0.0000
  12 C12         -4.2707    -0.0337     3.5263 C.ar         1    LIG   0.0000
  13 C13         -4.4885     0.9322     4.5035 C.ar         1    LIG   0.0000
  14 C14         -3.4722     1.8322     4.8107 C.ar         1    LIG   0.0000
  15 F15         -3.6831     2.7577     5.7512 F            1    LIG   0.0000
  16 C16         -2.2686     1.7196     4.1142 C.ar         1    LIG   0.0000
  17 C17         -2.0397     0.7548     3.1317 C.ar         1    LIG   0.0000
  18 H            3.9767     2.4331     1.0000 H            1    LIG   0.0000
  19 H            2.6433     2.9045     0.1835 H            1    LIG   0.0000
  20 H            2.6433     2.9045     1.8165 H            1    LIG   0.0000
  21 H            2.8033     0.5286     0.1835 H            1    LIG   0.0000
  22 H            2.8033     0.5286     1.8165 H            1    LIG   0.0000
  23 H           -0.6088     0.5286    -0.1535 H            1    LIG   0.0000
  24 H            0.8054     0.5286    -0.9700 H            1    LIG   0.0000
  25 H           -0.4883     2.4331    -1.5779 H            1    LIG   0.0000
  26 H           -0.5288     2.9045    -0.0149 H            1    LIG   0.0000
  27 H            0.8854     2.9045    -0.8314 H            1    LIG   0.0000
  28 H           -0.8840    -1.1822     0.8361 H            1    LIG   0.0000
  29 H           -5.0020    -0.6793     3.3066 H            1    LIG   0.0000
  30 H           -5.3662     0.9794     4.9804 H            1    LIG   0.0000
  31 H           -1.5332     2.3621     4.3296 H            1    LIG   0.0000
@<TRIPOS>BOND
   1        1        2 1
   2        2        3 1
   3        3        4 1
   4        4        5 1
   5        3        6 am
   6        6        7 2
   7        6        8 1
   8        8        9 2
   9        9       10 1
  10       10       11 1
  11       11       12 ar
  12       12       13 ar
  13       13       14 ar
  14       14       15 1
  15       14       16 ar
  16       16       17 ar
  17       17        8 1
  18       17       11 ar
  19        1       18 1
  20        1       19 1
  21        1       20 1
  22        2       21 1
  23        2       22 1
  24        4       23 1
  25        4       24 1
  26        5       25 1
  27        5       26 1
  28        5       27 1
  29        9       28 1
  30       12       29 1
  31       13       30 1
  32       16       31 1

@<TRIPOS>MOLECULE

  31   32
SMALL
USER_CHARGES
@<TRIPOS>ATOM
   1 C1           2.9767     2.4331     1.0000 C.3          1    LIG   0.0000
   2 C2           2.4700     1.0000     1.0000 C.3          1    LIG   0.0000
   3 N3           1.0000     1.0000     1.0000 N.am         1    LIG   0.0000
   4 C4           0.2650     1.0000    -0.2731 C.3          1    LIG   0.0000
   5 C5           0.0117     2.4331    -0.7118 C.3          1    LIG   0.0000
   6 C6           0.3150     1.0000     2.1865 C.2          1    LIG   0.0000
   7 O7           0.7944     1.5196     3.1561 O.2          1    LIG   0.0000
   8 C8          -0.9895     0.3721     2.2706 C.2          1    LIG   0.0000
   9 C9          -2.0000     0.7466     3.1024 C.2          1    LIG   0.0000
  10 O10         -2.9952    -0.0718     2.8670 O.2          1    LIG   0.0000
  11 C11         -2.7150    -0.9602     1.9384 C.ar         1    LIG   0.0000
  12 C12         -3.4653    -1.9935     1.3861 C.ar         1    LIG   0.0000
  13 C13         -2.9495    -2.8160     0.3897 C.ar         1    LIG   0.0000
  14 C14         -1.6521    -2.6022    -0.0667 C.ar         1    LIG   0.0000
  15 F15         -1.1597    -3.3923    -1.0253 F            1    LIG   0.0000
  16 C16         -0.9230    -1.5593     0.5052 C.ar         1    LIG   0.0000
  17 C17         -1.4305    -0.7286     1.5056 C.ar         1    LIG   0.0000
  18 H            3.9767     2.4331     1.0000 H            1    LIG   0.0000
  19 H            2.6433     2.9045     0.1835 H            1    LIG   0.0000
  20 H            2.6433     2.9045     1.8165 H            1    LIG   0.0000
  21 H            2.8033     0.5286     0.1835 H            1    LIG   0.0000
  22 H            2.8033     0.5286     1.8165 H            1    LIG   0.0000
  23 H           -0.6088     0.5286    -0.1535 H            1    LIG   0.0000
  24 H            0.8054     0.5286    -0.9700 H            1    LIG   0.0000
  25 H           -0.4883     2.4331    -1.5779 H            1    LIG   0.0000
  26 H           -0.5288     2.9045    -0.0149 H            1    LIG   0.0000
  27 H            0.8854     2.9045    -0.8314 H            1    LIG   0.0000
  28 H           -1.9853     1.4977     3.7625 H            1    LIG   0.0000
  29 H           -4.3975    -2.1487     1.7132 H            1    LIG   0.0000
  30 H           -3.5051    -3.5532     0.0053 H            1    LIG   0.0000
  31 H            0.0097    -1.3988     0.1822 H            1    LIG   0.0000
@<TRIPOS>BOND
   1        1        2 1
   2        2        3 1
   3        3        4 1
   4        4        5 1
   5        3        6 am
   6        6        7 2
   7        6        8 1
   8        8        9 2
   9        9       10 1
  10       10       11 1
  11       11       12 ar
  12       12       13 ar
  13       13       14 ar
  14       14       15 1
  15       14       16 ar
  16       16       17 ar
  17       17        8 1
  18       17       11 ar
  19        1       18 1
  20        1       19 1
  21        1       20 1
  22        2       21 1
  23        2       22 1
  24        4       23 1
  25        4       24 1
  26        5       25 1
  27        5       26 1
  28        5       27 1
  29        9       28 1
  30       12       29 1
  31       13       30 1
  32       16       31 1

@<TRIPOS>MOLECULE

  31   32
SMALL
USER_CHARGES
@<TRIPOS>ATOM
   1 C1           2.9767    -0.4331     1.0000 C.3          1    LIG   0.0000
   2 C2           2.4700     1.0000     1.0000 C.3          1    LIG   0.0000
   3 N3           1.0000     1.0000     1.0000 N.am         1    LIG   0.0000
   4 C4           0.2650     1.0000    -0.2731 C.3          1    LIG   0.0000
   5 C5           0.0117     2.4331    -0.7118 C.3          1    LIG   0.0000
   6 C6           0.3150     1.0000     2.1865 C.2          1    LIG   0.0000
   7 O7           0.9150     1.0000     3.2257 O.2          1    LIG   0.0000
   8 C8          -1.1352     1.0000     2.1865 C.2          1    LIG   0.0000
   9 C9          -1.9302    -0.1051     2.1881 C.2          1    LIG   0.0000
  10 O10         -3.1661     0.3286     2.1857 O.2          1    LIG   0.0000
  11 C11         -3.2449     1.6416     2.1833 C.ar         1    LIG   0.0000
  12 C12         -4.3352     2.5058     2.1835 C.ar         1    LIG   0.0000
  13 C13         -4.1696     3.8871     2.1882 C.ar         1    LIG   0.0000
  14 C14         -2.8835     4.4193     2.1923 C.ar         1    LIG   0.0000
  15 F15         -2.7271     5.7463     2.1990 F            1    LIG   0.0000
  16 C16         -1.8092     3.5292     2.1918 C.ar         1    LIG   0.0000
  17 C17         -1.9641     2.1419     2.1865 C.ar         1    LIG   0.0000
  18 H            3.9767    -0.4331     1.0000 H            1    LIG   0.0000
  19 H            2.6433    -0.9045     1.8165 H            1    LIG   0.0000
  20 H            2.6433    -0.9045     0.1835 H            1    LIG   0.0000
  21 H            2.8033     1.4714     1.8165 H            1    LIG   0.0000
  22 H            2.8033     1.4714     0.1835 H            1    LIG   0.0000
  23 H           -0.6088     0.5286    -0.1535 H            1    LIG   0.0000
  24 H            0.8054     0.5286    -0.9700 H            1    LIG   0.0000
  25 H           -0.4883     2.4331    -1.5779 H            1    LIG   0.0000
  26 H           -0.5288     2.9045    -0.0149 H            1    LIG   0.0000
  27 H            0.8854     2.9045    -0.8314 H            1    LIG   0.0000
  28 H           -1.6301    -1.0590     2.1906 H            1    LIG   0.0000
  29 H           -5.2599     2.1251     2.1802 H            1    LIG   0.0000
  30 H           -4.9663     4.4914     2.1887 H            1    LIG   0.0000
  31 H           -0.8820     3.9037     2.1953 H            1    LIG   0.0000
@<TRIPOS>BOND
   1        1        2 1
   2        2        3 1
   3        3        4 1
   4        4        5 1
   5        3        6 am
   6        6        7 2
   7        6        8 1
   8        8        9 2
   9        9       10 1
  10       10       11 1
  11       11       12 ar
  12       12       13 ar
  13       13       14 ar
  14       14       15 1
  15       14       16 ar
  16       16       17 ar
  17       17        8 1
  18       17       11 ar
  19        1       18 1
  20        1       19 1
  21        1       20 1
  22        2       21 1
  23        2       22 1
  24        4       23 1
  25        4       24 1
  26        5       25 1
  27        5       26 1
  28        5       27 1
  29        9       28 1
  30       12       29 1
  31       13       30 1
  32       16       31 1

@<TRIPOS>MOLECULE

  31   32
SMALL
USER_CHARGES
@<TRIPOS>ATOM
   1 C1           2.9767    -0.4331     1.0000 C.3          1    LIG   0.0000
   2 C2           2.4700     1.0000     1.0000 C.3          1    LIG   0.0000
   3 N3           1.0000     1.0000     1.0000 N.am         1    LIG   0.0000
   4 C4           0.2650     1.0000    -0.2731 C.3          1    LIG   0.0000
   5 C5           0.0117     2.4331    -0.7118 C.3          1    LIG   0.0000
   6 C6           0.3150     1.0000     2.1865 C.2          1    LIG   0.0000
   7 O7           0.9150     1.0000     3.2257 O.2          1    LIG   0.0000
   8 C8          -1.1352     1.0000     2.1865 C.2          1    LIG   0.0000
   9 C9          -1.9302     2.1051     2.1848 C.2          1    LIG   0.0000
  10 O10         -3.1661     1.6714     2.1872 O.2          1    LIG   0.0000
  11 C11         -3.2449     0.3584     2.1897 C.ar         1    LIG   0.0000
  12 C12         -4.3352    -0.5058     2.1894 C.ar         1    LIG   0.0000
  13 C13         -4.1696    -1.8871     2.1847 C.ar         1    LIG   0.0000
  14 C14         -2.8835    -2.4193     2.1806 C.ar         1    LIG   0.0000
  15 F15         -2.7271    -3.7463     2.1739 F            1    LIG   0.0000
  16 C16         -1.8092    -1.5292     2.1812 C.ar         1    LIG   0.0000
  17 C17         -1.9641    -0.1419     2.1865 C.ar         1    LIG   0.0000
  18 H            3.9767    -0.4331     1.0000 H            1    LIG   0.0000
  19 H            2.6433    -0.9045     1.8165 H            1    LIG   0.0000
  20 H            2.6433    -0.9045     0.1835 H            1    LIG   0.0000
  21 H            2.8033     1.4714     1.8165 H            1    LIG   0.0000
  22 H            2.8033     1.4714     0.1835 H            1    LIG   0.0000
  23 H           -0.6088     0.5286    -0.1535 H            1    LIG   0.0000
  24 H            0.8054     0.5286    -0.9700 H            1    LIG   0.0000
  25 H           -0.4883     2.4331    -1.5779 H            1    LIG   0.0000
  26 H           -0.5288     2.9045    -0.0149 H            1    LIG   0.0000
  27 H            0.8854     2.9045    -0.8314 H            1    LIG   0.0000
  28 H           -1.6301     3.0590     2.1823 H            1    LIG   0.0000
  29 H           -5.2599    -0.1251     2.1927 H            1    LIG   0.0000
  30 H           -4.9663    -2.4914     2.1842 H            1    LIG   0.0000
  31 H           -0.8820    -1.9037     2.1776 H            1    LIG   0.0000
@<TRIPOS>BOND
   1        1        2 1
   2        2        3 1
   3        3        4 1
   4        4        5 1
   5        3        6 am
   6        6        7 2
   7        6        8 1
   8        8        9 2
   9        9       10 1
  10       10       11 1
  11       11       12 ar
  12       12       13 ar
  13       13       14 ar
  14       14       15 1
  15       14       16 ar
  16       16       17 ar
  17       17        8 1
  18       17       11 ar
  19        1       18 1
  20        1       19 1
  21        1       20 1
  22        2       21 1
  23        2       22 1
  24        4       23 1
  25        4       24 1
  26        5       25 1
  27        5       26 1
  28        5       27 1
  29        9       28 1
  30       12       29 1
  31       13       30 1
  32       16       31 1

