@<TRIPOS>MOLECULE
*****
 31 32 0 0 0
SMALL
USER_CHARGES

@<TRIPOS>ATOM
      1 C1          2.9767    2.4331    1.0000 C.3     1  LIG1        0.0000
      2 C2          2.4700    1.0000    1.0000 C.3     1  LIG1        0.0000
      3 N3          1.0000    1.0000    1.0000 N.am    1  LIG1        0.0000
      4 C4          0.2650    1.0000   -0.2731 C.3     1  LIG1        0.0000
      5 C5          0.0117   -0.4331   -0.7118 C.3     1  LIG1        0.0000
      6 C6          0.3150    1.0000    2.1865 C.2     1  LIG1        0.0000
      7 O7          0.9150    1.0000    3.2257 O.2     1  LIG1        0.0000
      8 C8         -1.1352    1.0000    2.1865 C.2     1  LIG1        0.0000
      9 C9         -1.9302   -0.1051    2.1881 C.2     1  LIG1        0.0000
     10 O10        -3.1661    0.3286    2.1857 O.2     1  LIG1        0.0000
     11 C11        -3.2449    1.6416    2.1833 C.3     1  LIG1        0.0000
     12 C12        -4.3352    2.5058    2.1835 C.3     1  LIG1        0.0000
     13 C13        -4.1696    3.8871    2.1882 C.3     1  LIG1        0.0000
     14 C14        -2.8835    4.4193    2.1923 C.3     1  LIG1        0.0000
     15 F15        -2.7271    5.7463    2.1990 F       1  LIG1        0.0000
     16 C16        -1.8092    3.5292    2.1918 C.3     1  LIG1        0.0000
     17 C17        -1.9641    2.1419    2.1865 C.3     1  LIG1        0.0000
     18 H           3.9767    2.4331    1.0000 H       1  LIG1        0.0000
     19 H           2.6433    2.9045    0.1835 H       1  LIG1        0.0000
     20 H           2.6433    2.9045    1.8165 H       1  LIG1        0.0000
     21 H           2.8033    0.5286    0.1835 H       1  LIG1        0.0000
     22 H           2.8033    0.5286    1.8165 H       1  LIG1        0.0000
     23 H           0.8054    1.4714   -0.9700 H       1  LIG1        0.0000
     24 H          -0.6088    1.4714   -0.1535 H       1  LIG1        0.0000
     25 H          -0.4883   -0.4331   -1.5779 H       1  LIG1        0.0000
     26 H           0.8854   -0.9045   -0.8314 H       1  LIG1        0.0000
     27 H          -0.5288   -0.9045   -0.0149 H       1  LIG1        0.0000
     28 H          -1.6301   -1.0590    2.1906 H       1  LIG1        0.0000
     29 H          -5.2599    2.1251    2.1802 H       1  LIG1        0.0000
     30 H          -4.9663    4.4914    2.1887 H       1  LIG1        0.0000
     31 H          -0.8820    3.9037    2.1953 H       1  LIG1        0.0000
@<TRIPOS>BOND
     1     1     2    1
     2     2     3    1
     3     3     4    1
     4     4     5    1
     5     3     6   am
     6     6     7    2
     7     6     8    1
     8     8     9    2
     9     9    10    1
    10    10    11    1
    11    11    12   ar
    12    12    13   ar
    13    13    14   ar
    14    14    15    1
    15    14    16   ar
    16    16    17   ar
    17    17     8    1
    18    17    11   ar
    19     1    18    1
    20     1    19    1
    21     1    20    1
    22     2    21    1
    23     2    22    1
    24     4    23    1
    25     4    24    1
    26     5    25    1
    27     5    26    1
    28     5    27    1
    29     9    28    1
    30    12    29    1
    31    13    30    1
    32    16    31    1
