@<TRIPOS>MOLECULE
*****
 31 32 0 0 0
SMALL
USER_CHARGES

@<TRIPOS>ATOM
      1 C1          2.9767    2.4331    1.0000 C.3     1  LIG1        0.0000
      2 C2          2.4700    1.0000    1.0000 C.3     1  LIG1        0.0000
      3 N3          1.0000    1.0000    1.0000 N.am    1  LIG1        0.0000
      4 C4          0.2650    1.0000   -0.2731 C.3     1  LIG1        0.0000
      5 C5          0.0117    2.4331   -0.7118 C.3     1  LIG1        0.0000
      6 C6          0.3150    1.0000    2.1865 C.2     1  LIG1        0.0000
      7 O7          0.7944    1.5196    3.1561 O.2     1  LIG1        0.0000
      8 C8         -0.9895    0.3721    2.2706 C.2     1  LIG1        0.0000
      9 C9         -2.0000    0.7466    3.1024 C.2     1  LIG1        0.0000
     10 O10        -2.9952   -0.0718    2.8670 O.2     1  LIG1        0.0000
     11 C11        -2.7150   -0.9602    1.9384 C.3     1  LIG1        0.0000
     12 C12        -3.4653   -1.9935    1.3861 C.3     1  LIG1        0.0000
     13 C13        -2.9495   -2.8160    0.3897 C.3     1  LIG1        0.0000
     14 C14        -1.6521   -2.6022   -0.0667 C.3     1  LIG1        0.0000
     15 F15        -1.1597   -3.3923   -1.0253 F       1  LIG1        0.0000
     16 C16        -0.9230   -1.5593    0.5052 C.3     1  LIG1        0.0000
     17 C17        -1.4305   -0.7286    1.5056 C.3     1  LIG1        0.0000
     18 H           3.9767    2.4331    1.0000 H       1  LIG1        0.0000
     19 H           2.6433    2.9045    0.1835 H       1  LIG1        0.0000
     20 H           2.6433    2.9045    1.8165 H       1  LIG1        0.0000
     21 H           2.8033    0.5286    0.1835 H       1  LIG1        0.0000
     22 H           2.8033    0.5286    1.8165 H       1  LIG1        0.0000
     23 H          -0.6088    0.5286   -0.1535 H       1  LIG1        0.0000
     24 H           0.8054    0.5286   -0.9700 H       1  LIG1        0.0000
     25 H          -0.4883    2.4331   -1.5779 H       1  LIG1        0.0000
     26 H          -0.5288    2.9045   -0.0149 H       1  LIG1        0.0000
     27 H           0.8854    2.9045   -0.8314 H       1  LIG1        0.0000
     28 H          -1.9853    1.4977    3.7625 H       1  LIG1        0.0000
     29 H          -4.3975   -2.1487    1.7132 H       1  LIG1        0.0000
     30 H          -3.5051   -3.5532    0.0053 H       1  LIG1        0.0000
     31 H           0.0097   -1.3988    0.1822 H       1  LIG1        0.0000
@<TRIPOS>BOND
     1     1     2    1
     2     2     3    1
     3     3     4    1
     4     4     5    1
     5     3     6   am
     6     6     7    2
     7     6     8    1
     8     8     9    2
     9     9    10    1
    10    10    11    1
    11    11    12   ar
    12    12    13   ar
    13    13    14   ar
    14    14    15    1
    15    14    16   ar
    16    16    17   ar
    17    17     8    1
    18    17    11   ar
    19     1    18    1
    20     1    19    1
    21     1    20    1
    22     2    21    1
    23     2    22    1
    24     4    23    1
    25     4    24    1
    26     5    25    1
    27     5    26    1
    28     5    27    1
    29     9    28    1
    30    12    29    1
    31    13    30    1
    32    16    31    1
