@<TRIPOS>MOLECULE
*****
 31 32 0 0 0
SMALL
USER_CHARGES

@<TRIPOS>ATOM
      1 C1          2.9767    2.4331    1.0000 C.3     1  LIG1        0.0000
      2 C2          2.4700    1.0000    1.0000 C.3     1  LIG1        0.0000
      3 N3          1.0000    1.0000    1.0000 N.am    1  LIG1        0.0000
      4 C4          0.2650    1.0000   -0.2731 C.3     1  LIG1        0.0000
      5 C5          0.0117   -0.4331   -0.7118 C.3     1  LIG1        0.0000
      6 C6          0.3150    1.0000    2.1865 C.2     1  LIG1        0.0000
      7 O7          0.7944    0.4804    3.1561 O.2     1  LIG1        0.0000
      8 C8         -0.9895    1.6279    2.2706 C.2     1  LIG1        0.0000
      9 C9         -1.4104    2.6890    1.5287 C.2     1  LIG1        0.0000
     10 O10        -2.6370    2.9439    1.9109 O.2     1  LIG1        0.0000
     11 C11        -3.0573    2.1268    2.8520 C.3     1  LIG1        0.0000
     12 C12        -4.2686    2.0374    3.5305 C.3     1  LIG1        0.0000
     13 C13        -4.4897    1.0655    4.5010 C.3     1  LIG1        0.0000
     14 C14        -3.4762    0.1605    4.8025 C.3     1  LIG1        0.0000
     15 F15        -3.6918   -0.7734    5.7336 F       1  LIG1        0.0000
     16 C16        -2.2723    0.2738    4.1068 C.3     1  LIG1        0.0000
     17 C17        -2.0397    1.2452    3.1317 C.3     1  LIG1        0.0000
     18 H           3.9767    2.4331    1.0000 H       1  LIG1        0.0000
     19 H           2.6433    2.9045    0.1835 H       1  LIG1        0.0000
     20 H           2.6433    2.9045    1.8165 H       1  LIG1        0.0000
     21 H           2.8033    0.5286    0.1835 H       1  LIG1        0.0000
     22 H           2.8033    0.5286    1.8165 H       1  LIG1        0.0000
     23 H           0.8054    1.4714   -0.9700 H       1  LIG1        0.0000
     24 H          -0.6088    1.4714   -0.1535 H       1  LIG1        0.0000
     25 H          -0.4883   -0.4331   -1.5779 H       1  LIG1        0.0000
     26 H           0.8854   -0.9045   -0.8314 H       1  LIG1        0.0000
     27 H          -0.5288   -0.9045   -0.0149 H       1  LIG1        0.0000
     28 H          -0.8869    3.1771    0.8304 H       1  LIG1        0.0000
     29 H          -4.9977    2.6872    3.3153 H       1  LIG1        0.0000
     30 H          -5.3678    1.0177    4.9772 H       1  LIG1        0.0000
     31 H          -1.5393   -0.3732    4.3171 H       1  LIG1        0.0000
@<TRIPOS>BOND
     1     1     2    1
     2     2     3    1
     3     3     4    1
     4     4     5    1
     5     3     6   am
     6     6     7    2
     7     6     8    1
     8     8     9    2
     9     9    10    1
    10    10    11    1
    11    11    12   ar
    12    12    13   ar
    13    13    14   ar
    14    14    15    1
    15    14    16   ar
    16    16    17   ar
    17    17     8    1
    18    17    11   ar
    19     1    18    1
    20     1    19    1
    21     1    20    1
    22     2    21    1
    23     2    22    1
    24     4    23    1
    25     4    24    1
    26     5    25    1
    27     5    26    1
    28     5    27    1
    29     9    28    1
    30    12    29    1
    31    13    30    1
    32    16    31    1
