@<TRIPOS>MOLECULE

  22   23
SMALL
USER_CHARGES
@<TRIPOS>ATOM
   1 O1           1.0000     1.0000     1.0000 O.3          1    LIG   0.0000
   2 C2           2.3503     1.0000     1.0000 C.ar         1    LIG   0.0000
   3 C3           3.0335     2.2116     0.9951 C.ar         1    LIG   0.0000
   4 C4           4.4241     2.1954     0.9956 C.ar         1    LIG   0.0000
   5 F5           5.0865     3.3490     0.9904 F            1    LIG   0.0000
   6 C6           5.1222     0.9927     1.0007 C.ar         1    LIG   0.0000
   7 C7           6.5734     0.9768     1.0013 C.ar         1    LIG   0.0000
   8 C8           7.2791     1.7460     1.9199 C.ar         1    LIG   0.0000
   9 C9           8.6691     1.7063     1.8903 C.ar         1    LIG   0.0000
  10 N10          9.3163     0.9431     0.9970 N.ar         1    LIG   0.0000
  11 C11          8.6516     0.1942     0.1043 C.ar         1    LIG   0.0000
  12 C12          7.2610     0.1907     0.0826 C.ar         1    LIG   0.0000
  13 C13          4.4370    -0.2180     1.0050 C.ar         1    LIG   0.0000
  14 C14          3.0464    -0.2054     1.0050 C.ar         1    LIG   0.0000
  15 F15          2.3714    -1.3517     1.0095 F            1    LIG   0.0000
  16 H            0.5000     1.8660     0.9964 H            1    LIG   0.0000
  17 H            2.5341     3.0780     0.9913 H            1    LIG   0.0000
  18 H            6.7980     2.3150     2.5869 H            1    LIG   0.0000
  19 H            9.1926     2.2536     2.5432 H            1    LIG   0.0000
  20 H            9.1597    -0.3656    -0.5503 H            1    LIG   0.0000
  21 H            6.7640    -0.3673    -0.5820 H            1    LIG   0.0000
  22 H            4.9368    -1.0841     1.0081 H            1    LIG   0.0000
@<TRIPOS>BOND
   1        1        2 1
   2        2        3 ar
   3        3        4 ar
   4        4        5 1
   5        4        6 ar
   6        6        7 1
   7        7        8 ar
   8        8        9 ar
   9        9       10 ar
  10       10       11 ar
  11       11       12 ar
  12       12        7 ar
  13        6       13 ar
  14       13       14 ar
  15       14        2 ar
  16       14       15 1
  17        1       16 1
  18        3       17 1
  19        8       18 1
  20        9       19 1
  21       11       20 1
  22       12       21 1
  23       13       22 1

@<TRIPOS>MOLECULE

  22   23
SMALL
USER_CHARGES
@<TRIPOS>ATOM
   1 O1           1.0000     1.0000     1.0000 O.3          1    LIG   0.0000
   2 C2           2.3503     1.0000     1.0000 C.ar         1    LIG   0.0000
   3 C3           3.0335     2.2116     0.9951 C.ar         1    LIG   0.0000
   4 C4           4.4241     2.1954     0.9956 C.ar         1    LIG   0.0000
   5 F5           5.0865     3.3490     0.9904 F            1    LIG   0.0000
   6 C6           5.1222     0.9927     1.0007 C.ar         1    LIG   0.0000
   7 C7           6.5734     0.9768     1.0013 C.ar         1    LIG   0.0000
   8 C8           7.2750     1.3851     2.1303 C.ar         1    LIG   0.0000
   9 C9           8.6652     1.3571     2.0941 C.ar         1    LIG   0.0000
  10 N10          9.3163     0.9451     0.9961 N.ar         1    LIG   0.0000
  11 C11          8.6556     0.5471    -0.1013 C.ar         1    LIG   0.0000
  12 C12          7.2650     0.5519    -0.1282 C.ar         1    LIG   0.0000
  13 C13          4.4370    -0.2180     1.0050 C.ar         1    LIG   0.0000
  14 C14          3.0464    -0.2054     1.0050 C.ar         1    LIG   0.0000
  15 F15          2.3714    -1.3517     1.0095 F            1    LIG   0.0000
  16 H            0.5000     1.8660     0.9964 H            1    LIG   0.0000
  17 H            2.5341     3.0780     0.9913 H            1    LIG   0.0000
  18 H            6.7910     1.6919     2.9498 H            1    LIG   0.0000
  19 H            9.1858     1.6479     2.8968 H            1    LIG   0.0000
  20 H            9.1665     0.2446    -0.9060 H            1    LIG   0.0000
  21 H            6.7710     0.2551    -0.9454 H            1    LIG   0.0000
  22 H            4.9368    -1.0841     1.0081 H            1    LIG   0.0000
@<TRIPOS>BOND
   1        1        2 1
   2        2        3 ar
   3        3        4 ar
   4        4        5 1
   5        4        6 ar
   6        6        7 1
   7        7        8 ar
   8        8        9 ar
   9        9       10 ar
  10       10       11 ar
  11       11       12 ar
  12       12        7 ar
  13        6       13 ar
  14       13       14 ar
  15       14        2 ar
  16       14       15 1
  17        1       16 1
  18        3       17 1
  19        8       18 1
  20        9       19 1
  21       11       20 1
  22       12       21 1
  23       13       22 1

@<TRIPOS>MOLECULE

  22   23
SMALL
USER_CHARGES
@<TRIPOS>ATOM
   1 O1           1.0000     1.0000     1.0000 O.3          1    LIG   0.0000
   2 C2           2.3503     1.0000     1.0000 C.ar         1    LIG   0.0000
   3 C3           3.0335     2.2116     0.9951 C.ar         1    LIG   0.0000
   4 C4           4.4241     2.1954     0.9956 C.ar         1    LIG   0.0000
   5 F5           5.0865     3.3490     0.9904 F            1    LIG   0.0000
   6 C6           5.1222     0.9927     1.0007 C.ar         1    LIG   0.0000
   7 C7           6.5734     0.9768     1.0013 C.ar         1    LIG   0.0000
   8 C8           7.2821     2.0132     1.5988 C.ar         1    LIG   0.0000
   9 C9           8.6721     1.9646     1.5794 C.ar         1    LIG   0.0000
  10 N10          9.3163     0.9415     0.9986 N.ar         1    LIG   0.0000
  11 C11          8.6486    -0.0670     0.4183 C.ar         1    LIG   0.0000
  12 C12          7.2579    -0.0766     0.4043 C.ar         1    LIG   0.0000
  13 C13          4.4370    -0.2180     1.0050 C.ar         1    LIG   0.0000
  14 C14          3.0464    -0.2054     1.0050 C.ar         1    LIG   0.0000
  15 F15          2.3714    -1.3517     1.0095 F            1    LIG   0.0000
  16 H            0.5000     1.8660     0.9964 H            1    LIG   0.0000
  17 H            2.5341     3.0780     0.9913 H            1    LIG   0.0000
  18 H            6.8033     2.7764     2.0327 H            1    LIG   0.0000
  19 H            9.1977     2.7019     2.0038 H            1    LIG   0.0000
  20 H            9.1545    -0.8173    -0.0072 H            1    LIG   0.0000
  21 H            6.7588    -0.8279    -0.0275 H            1    LIG   0.0000
  22 H            4.9368    -1.0841     1.0081 H            1    LIG   0.0000
@<TRIPOS>BOND
   1        1        2 1
   2        2        3 ar
   3        3        4 ar
   4        4        5 1
   5        4        6 ar
   6        6        7 1
   7        7        8 ar
   8        8        9 ar
   9        9       10 ar
  10       10       11 ar
  11       11       12 ar
  12       12        7 ar
  13        6       13 ar
  14       13       14 ar
  15       14        2 ar
  16       14       15 1
  17        1       16 1
  18        3       17 1
  19        8       18 1
  20        9       19 1
  21       11       20 1
  22       12       21 1
  23       13       22 1

@<TRIPOS>MOLECULE

  22   23
SMALL
USER_CHARGES
@<TRIPOS>ATOM
   1 O1           1.0000     1.0000     1.0000 O.3          1    LIG   0.0000
   2 C2           2.3503     1.0000     1.0000 C.ar         1    LIG   0.0000
   3 C3           3.0335     2.2116     0.9951 C.ar         1    LIG   0.0000
   4 C4           4.4241     2.1954     0.9956 C.ar         1    LIG   0.0000
   5 F5           5.0865     3.3490     0.9904 F            1    LIG   0.0000
   6 C6           5.1222     0.9927     1.0007 C.ar         1    LIG   0.0000
   7 C7           6.5734     0.9768     1.0013 C.ar         1    LIG   0.0000
   8 C8           7.2797     1.7386     0.0770 C.ar         1    LIG   0.0000
   9 C9           8.6697     1.6978     0.1069 C.ar         1    LIG   0.0000
  10 N10          9.3163     0.9420     1.0069 N.ar         1    LIG   0.0000
  11 C11          8.6510     0.2017     1.9062 C.ar         1    LIG   0.0000
  12 C12          7.2603     0.1994     1.9278 C.ar         1    LIG   0.0000
  13 C13          4.4370    -0.2180     1.0050 C.ar         1    LIG   0.0000
  14 C14          3.0464    -0.2054     1.0050 C.ar         1    LIG   0.0000
  15 F15          2.3714    -1.3517     1.0095 F            1    LIG   0.0000
  16 H            0.5000     1.8660     0.9964 H            1    LIG   0.0000
  17 H            2.5341     3.0780     0.9913 H            1    LIG   0.0000
  18 H            6.7991     2.3030    -0.5942 H            1    LIG   0.0000
  19 H            9.1937     2.2389    -0.5509 H            1    LIG   0.0000
  20 H            9.1586    -0.3525     2.5659 H            1    LIG   0.0000
  21 H            6.7629    -0.3516     2.5979 H            1    LIG   0.0000
  22 H            4.9368    -1.0841     1.0081 H            1    LIG   0.0000
@<TRIPOS>BOND
   1        1        2 1
   2        2        3 ar
   3        3        4 ar
   4        4        5 1
   5        4        6 ar
   6        6        7 1
   7        7        8 ar
   8        8        9 ar
   9        9       10 ar
  10       10       11 ar
  11       11       12 ar
  12       12        7 ar
  13        6       13 ar
  14       13       14 ar
  15       14        2 ar
  16       14       15 1
  17        1       16 1
  18        3       17 1
  19        8       18 1
  20        9       19 1
  21       11       20 1
  22       12       21 1
  23       13       22 1

@<TRIPOS>MOLECULE

  22   23
SMALL
USER_CHARGES
@<TRIPOS>ATOM
   1 O1           1.0000     1.0000     1.0000 O.3          1    LIG   0.0000
   2 C2           2.3503     1.0000     1.0000 C.ar         1    LIG   0.0000
   3 C3           3.0335     2.2116     0.9951 C.ar         1    LIG   0.0000
   4 C4           4.4241     2.1954     0.9956 C.ar         1    LIG   0.0000
   5 F5           5.0865     3.3490     0.9904 F            1    LIG   0.0000
   6 C6           5.1222     0.9927     1.0007 C.ar         1    LIG   0.0000
   7 C7           6.5734     0.9768     1.0013 C.ar         1    LIG   0.0000
   8 C8           7.2826     2.0084     0.3959 C.ar         1    LIG   0.0000
   9 C9           8.6725     1.9591     0.4154 C.ar         1    LIG   0.0000
  10 N10          9.3163     0.9408     1.0050 N.ar         1    LIG   0.0000
  11 C11          8.6482    -0.0621     1.5944 C.ar         1    LIG   0.0000
  12 C12          7.2575    -0.0710     1.6087 C.ar         1    LIG   0.0000
  13 C13          4.4370    -0.2180     1.0050 C.ar         1    LIG   0.0000
  14 C14          3.0464    -0.2054     1.0050 C.ar         1    LIG   0.0000
  15 F15          2.3714    -1.3517     1.0095 F            1    LIG   0.0000
  16 H            0.5000     1.8660     0.9964 H            1    LIG   0.0000
  17 H            2.5341     3.0780     0.9913 H            1    LIG   0.0000
  18 H            6.8040     2.7686    -0.0435 H            1    LIG   0.0000
  19 H            9.1984     2.6923    -0.0157 H            1    LIG   0.0000
  20 H            9.1538    -0.8088     2.0267 H            1    LIG   0.0000
  21 H            6.7581    -0.8177     2.0480 H            1    LIG   0.0000
  22 H            4.9368    -1.0841     1.0081 H            1    LIG   0.0000
@<TRIPOS>BOND
   1        1        2 1
   2        2        3 ar
   3        3        4 ar
   4        4        5 1
   5        4        6 ar
   6        6        7 1
   7        7        8 ar
   8        8        9 ar
   9        9       10 ar
  10       10       11 ar
  11       11       12 ar
  12       12        7 ar
  13        6       13 ar
  14       13       14 ar
  15       14        2 ar
  16       14       15 1
  17        1       16 1
  18        3       17 1
  19        8       18 1
  20        9       19 1
  21       11       20 1
  22       12       21 1
  23       13       22 1

@<TRIPOS>MOLECULE

  22   23
SMALL
USER_CHARGES
@<TRIPOS>ATOM
   1 O1           1.0000     1.0000     1.0000 O.3          1    LIG   0.0000
   2 C2           2.3503     1.0000     1.0000 C.ar         1    LIG   0.0000
   3 C3           3.0335     2.2116     0.9951 C.ar         1    LIG   0.0000
   4 C4           4.4241     2.1954     0.9956 C.ar         1    LIG   0.0000
   5 F5           5.0865     3.3490     0.9904 F            1    LIG   0.0000
   6 C6           5.1222     0.9927     1.0007 C.ar         1    LIG   0.0000
   7 C7           6.5734     0.9768     1.0013 C.ar         1    LIG   0.0000
   8 C8           7.2758     1.3759    -0.1304 C.ar         1    LIG   0.0000
   9 C9           8.6659     1.3468    -0.0936 C.ar         1    LIG   0.0000
  10 N10          9.3163     0.9438     1.0082 N.ar         1    LIG   0.0000
  11 C11          8.6548     0.5563     2.1090 C.ar         1    LIG   0.0000
  12 C12          7.2642     0.5626     2.1352 C.ar         1    LIG   0.0000
  13 C13          4.4370    -0.2180     1.0050 C.ar         1    LIG   0.0000
  14 C14          3.0464    -0.2054     1.0050 C.ar         1    LIG   0.0000
  15 F15          2.3714    -1.3517     1.0095 F            1    LIG   0.0000
  16 H            0.5000     1.8660     0.9964 H            1    LIG   0.0000
  17 H            2.5341     3.0780     0.9913 H            1    LIG   0.0000
  18 H            6.7924     1.6772    -0.9524 H            1    LIG   0.0000
  19 H            9.1871     1.6299    -0.8987 H            1    LIG   0.0000
  20 H            9.1652     0.2607     2.9165 H            1    LIG   0.0000
  21 H            6.7697     0.2744     2.9552 H            1    LIG   0.0000
  22 H            4.9368    -1.0841     1.0081 H            1    LIG   0.0000
@<TRIPOS>BOND
   1        1        2 1
   2        2        3 ar
   3        3        4 ar
   4        4        5 1
   5        4        6 ar
   6        6        7 1
   7        7        8 ar
   8        8        9 ar
   9        9       10 ar
  10       10       11 ar
  11       11       12 ar
  12       12        7 ar
  13        6       13 ar
  14       13       14 ar
  15       14        2 ar
  16       14       15 1
  17        1       16 1
  18        3       17 1
  19        8       18 1
  20        9       19 1
  21       11       20 1
  22       12       21 1
  23       13       22 1

