@<TRIPOS>MOLECULE
*****
 22 23 0 0 0
SMALL
USER_CHARGES

@<TRIPOS>ATOM
      1 O1          1.0000    1.0000    1.0000 O.3     1  LIG1        0.0000
      2 C2          2.3503    1.0000    1.0000 C.ar    1  LIG1        0.0000
      3 C3          3.0335    2.2116    0.9951 C.ar    1  LIG1        0.0000
      4 C4          4.4241    2.1954    0.9956 C.ar    1  LIG1        0.0000
      5 F5          5.0865    3.3490    0.9904 F       1  LIG1        0.0000
      6 C6          5.1222    0.9927    1.0007 C.ar    1  LIG1        0.0000
      7 C7          6.5734    0.9768    1.0013 C.ar    1  LIG1        0.0000
      8 C8          7.2797    1.7386    0.0770 C.ar    1  LIG1        0.0000
      9 C9          8.6697    1.6978    0.1069 C.ar    1  LIG1        0.0000
     10 N10         9.3163    0.9420    1.0069 N.ar    1  LIG1        0.0000
     11 C11         8.6510    0.2017    1.9062 C.ar    1  LIG1        0.0000
     12 C12         7.2603    0.1994    1.9278 C.ar    1  LIG1        0.0000
     13 C13         4.4370   -0.2180    1.0050 C.ar    1  LIG1        0.0000
     14 C14         3.0464   -0.2054    1.0050 C.ar    1  LIG1        0.0000
     15 F15         2.3714   -1.3517    1.0095 F       1  LIG1        0.0000
     16 H           0.5000    1.8660    0.9964 H       1  LIG1        0.0000
     17 H           2.5341    3.0780    0.9913 H       1  LIG1        0.0000
     18 H           6.7991    2.3030   -0.5942 H       1  LIG1        0.0000
     19 H           9.1937    2.2389   -0.5509 H       1  LIG1        0.0000
     20 H           9.1586   -0.3525    2.5659 H       1  LIG1        0.0000
     21 H           6.7629   -0.3516    2.5979 H       1  LIG1        0.0000
     22 H           4.9368   -1.0841    1.0081 H       1  LIG1        0.0000
@<TRIPOS>BOND
     1     1     2    1
     2     2     3   ar
     3     3     4   ar
     4     4     5    1
     5     4     6   ar
     6     6     7    1
     7     7     8   ar
     8     8     9   ar
     9     9    10   ar
    10    10    11   ar
    11    11    12   ar
    12    12     7   ar
    13     6    13   ar
    14    13    14   ar
    15    14     2   ar
    16    14    15    1
    17     1    16    1
    18     3    17    1
    19     8    18    1
    20     9    19    1
    21    11    20    1
    22    12    21    1
    23    13    22    1
