@<TRIPOS>MOLECULE
*****
 22 23 0 0 0
SMALL
USER_CHARGES

@<TRIPOS>ATOM
      1 O1          1.0000    1.0000    1.0000 O.3     1  LIG1        0.0000
      2 C2          2.3503    1.0000    1.0000 C.ar    1  LIG1        0.0000
      3 C3          3.0335    2.2116    0.9951 C.ar    1  LIG1        0.0000
      4 C4          4.4241    2.1954    0.9956 C.ar    1  LIG1        0.0000
      5 F5          5.0865    3.3490    0.9904 F       1  LIG1        0.0000
      6 C6          5.1222    0.9927    1.0007 C.ar    1  LIG1        0.0000
      7 C7          6.5734    0.9768    1.0013 C.ar    1  LIG1        0.0000
      8 C8          7.2758    1.3759   -0.1304 C.ar    1  LIG1        0.0000
      9 C9          8.6659    1.3468   -0.0936 C.ar    1  LIG1        0.0000
     10 N10         9.3163    0.9438    1.0082 N.ar    1  LIG1        0.0000
     11 C11         8.6548    0.5563    2.1090 C.ar    1  LIG1        0.0000
     12 C12         7.2642    0.5626    2.1352 C.ar    1  LIG1        0.0000
     13 C13         4.4370   -0.2180    1.0050 C.ar    1  LIG1        0.0000
     14 C14         3.0464   -0.2054    1.0050 C.ar    1  LIG1        0.0000
     15 F15         2.3714   -1.3517    1.0095 F       1  LIG1        0.0000
     16 H           0.5000    1.8660    0.9964 H       1  LIG1        0.0000
     17 H           2.5341    3.0780    0.9913 H       1  LIG1        0.0000
     18 H           6.7924    1.6772   -0.9524 H       1  LIG1        0.0000
     19 H           9.1871    1.6299   -0.8987 H       1  LIG1        0.0000
     20 H           9.1652    0.2607    2.9165 H       1  LIG1        0.0000
     21 H           6.7697    0.2744    2.9552 H       1  LIG1        0.0000
     22 H           4.9368   -1.0841    1.0081 H       1  LIG1        0.0000
@<TRIPOS>BOND
     1     1     2    1
     2     2     3   ar
     3     3     4   ar
     4     4     5    1
     5     4     6   ar
     6     6     7    1
     7     7     8   ar
     8     8     9   ar
     9     9    10   ar
    10    10    11   ar
    11    11    12   ar
    12    12     7   ar
    13     6    13   ar
    14    13    14   ar
    15    14     2   ar
    16    14    15    1
    17     1    16    1
    18     3    17    1
    19     8    18    1
    20     9    19    1
    21    11    20    1
    22    12    21    1
    23    13    22    1
