@<TRIPOS>MOLECULE
*****
 22 23 0 0 0
SMALL
USER_CHARGES

@<TRIPOS>ATOM
      1 O1          1.0000    1.0000    1.0000 O.3     1  LIG1        0.0000
      2 C2          2.3503    1.0000    1.0000 C.ar    1  LIG1        0.0000
      3 C3          3.0335    2.2116    0.9951 C.ar    1  LIG1        0.0000
      4 C4          4.4241    2.1954    0.9956 C.ar    1  LIG1        0.0000
      5 F5          5.0865    3.3490    0.9904 F       1  LIG1        0.0000
      6 C6          5.1222    0.9927    1.0007 C.ar    1  LIG1        0.0000
      7 C7          6.5734    0.9768    1.0013 C.ar    1  LIG1        0.0000
      8 C8          7.2750    1.3851    2.1303 C.ar    1  LIG1        0.0000
      9 C9          8.6652    1.3571    2.0941 C.ar    1  LIG1        0.0000
     10 N10         9.3163    0.9451    0.9961 N.ar    1  LIG1        0.0000
     11 C11         8.6556    0.5471   -0.1013 C.ar    1  LIG1        0.0000
     12 C12         7.2650    0.5519   -0.1282 C.ar    1  LIG1        0.0000
     13 C13         4.4370   -0.2180    1.0050 C.ar    1  LIG1        0.0000
     14 C14         3.0464   -0.2054    1.0050 C.ar    1  LIG1        0.0000
     15 F15         2.3714   -1.3517    1.0095 F       1  LIG1        0.0000
     16 H           0.5000    1.8660    0.9964 H       1  LIG1        0.0000
     17 H           2.5341    3.0780    0.9913 H       1  LIG1        0.0000
     18 H           6.7910    1.6919    2.9498 H       1  LIG1        0.0000
     19 H           9.1858    1.6479    2.8968 H       1  LIG1        0.0000
     20 H           9.1665    0.2446   -0.9060 H       1  LIG1        0.0000
     21 H           6.7710    0.2551   -0.9454 H       1  LIG1        0.0000
     22 H           4.9368   -1.0841    1.0081 H       1  LIG1        0.0000
@<TRIPOS>BOND
     1     1     2    1
     2     2     3   ar
     3     3     4   ar
     4     4     5    1
     5     4     6   ar
     6     6     7    1
     7     7     8   ar
     8     8     9   ar
     9     9    10   ar
    10    10    11   ar
    11    11    12   ar
    12    12     7   ar
    13     6    13   ar
    14    13    14   ar
    15    14     2   ar
    16    14    15    1
    17     1    16    1
    18     3    17    1
    19     8    18    1
    20     9    19    1
    21    11    20    1
    22    12    21    1
    23    13    22    1
