@<TRIPOS>MOLECULE

  62   66
SMALL
USER_CHARGES
@<TRIPOS>ATOM
   1 C1           7.1148     7.0147     2.6136 C.3          1    LIG   0.0000
   2 C2           6.3693     5.7854     2.1196 C.ar         1    LIG   0.0000
   3 C3           5.6630     5.0209     3.0418 C.ar         1    LIG   0.0000
   4 C4           4.9663     3.8880     2.6344 C.ar         1    LIG   0.0000
   5 C5           4.9872     3.5316     1.2901 C.ar         1    LIG   0.0000
   6 N6           4.2873     2.3925     0.8755 N.am         1    LIG   0.0000
   7 C7           3.0550     2.1149     1.4058 C.2          1    LIG   0.0000
   8 O8           2.5756     2.8483     2.2257 O.2          1    LIG   0.0000
   9 N9           2.3700     1.0000     1.0000 N.am         1    LIG   0.0000
  10 C10          1.0000     1.0000     1.0000 C.2          1    LIG   0.0000
  11 O11          0.2900    -0.2298     1.0000 O.3          1    LIG  -1.0000
  12 C12          0.3500     2.1258     1.0000 C.2          1    LIG   0.0000
  13 O13          1.0050     3.2603     1.0000 O.3          1    LIG   0.0000
  14 C14          0.7750     4.0443     2.0240 C.2          1    LIG   0.0000
  15 O15          0.0069     3.7029     2.8804 O.2          1    LIG   0.0000
  16 C16          1.4483     5.3242     2.1225 C.ar         1    LIG   0.0000
  17 C17          1.2280     6.2308     1.0922 C.ar         1    LIG   0.0000
  18 C18          1.8583     7.4682     1.1532 C.ar         1    LIG   0.0000
  19 C19          1.6053     8.4435     0.0197 C.3          1    LIG   0.0000
  20 C20          1.5802     9.9126     0.3061 C.3          1    LIG   0.0000
  21 C21          2.7547     9.3081    -0.4156 C.3          1    LIG   0.0000
  22 N22          2.6558     7.7508     2.1988 N.ar         1    LIG   0.0000
  23 C23          2.8871     6.8935     3.2096 C.ar         1    LIG   0.0000
  24 C24          2.2857     5.6598     3.1878 C.ar         1    LIG   0.0000
  25 C25          2.7291     5.0089     4.3673 C.2          1    LIG   0.0000
  26 C26          2.3510     3.6099     4.8272 C.3          1    LIG   0.0000
  27 N27          3.5388     5.8019     5.0290 N.2          1    LIG   0.0000
  28 N28          3.6357     6.9237     4.3526 N.pl3        1    LIG   0.0000
  29 C29          4.4179     8.0096     4.7633 C.ar         1    LIG   0.0000
  30 C30          5.1340     7.8953     5.9505 C.ar         1    LIG   0.0000
  31 C31          5.9160     8.9676     6.3665 C.ar         1    LIG   0.0000
  32 C32          5.9720    10.1254     5.5996 C.ar         1    LIG   0.0000
  33 C33          5.2341    10.1795     4.4224 C.ar         1    LIG   0.0000
  34 N34          4.4849     9.1360     4.0371 N.ar         1    LIG   0.0000
  35 C35          5.6903     4.2877     0.3575 C.ar         1    LIG   0.0000
  36 C36          6.3832     5.4186     0.7768 C.ar         1    LIG   0.0000
  37 C37          7.1451     6.2316    -0.2578 C.3          1    LIG   0.0000
  38 H            6.9845     7.1093     3.6005 H            1    LIG   0.0000
  39 H            8.0897     6.9160     2.4140 H            1    LIG   0.0000
  40 H            6.7605     7.8276     2.1512 H            1    LIG   0.0000
  41 H            5.6558     5.2877     4.0055 H            1    LIG   0.0000
  42 H            4.4584     3.3383     3.2977 H            1    LIG   0.0000
  43 H            4.6869     1.7813     0.1923 H            1    LIG   0.0000
  44 H            2.8700     0.1862     0.7038 H            1    LIG   0.0000
  45 H           -0.6500     2.1258     1.0000 H            1    LIG   0.0000
  46 H            0.6301     5.9983     0.3250 H            1    LIG   0.0000
  47 H            0.9943     8.1263    -0.7055 H            1    LIG   0.0000
  48 H            1.6853    10.2407     1.2449 H            1    LIG   0.0000
  49 H            0.9434    10.5068    -0.1853 H            1    LIG   0.0000
  50 H            2.8980     9.4990    -1.3867 H            1    LIG   0.0000
  51 H            3.6398     9.2328     0.0435 H            1    LIG   0.0000
  52 H            1.7249     3.1990     4.1644 H            1    LIG   0.0000
  53 H            3.1754     3.0485     4.8994 H            1    LIG   0.0000
  54 H            1.9039     3.6620     5.7202 H            1    LIG   0.0000
  55 H            5.0873     7.0576     6.4947 H            1    LIG   0.0000
  56 H            6.4380     8.9055     7.2172 H            1    LIG   0.0000
  57 H            6.5309    10.9027     5.8883 H            1    LIG   0.0000
  58 H            5.2623    11.0043     3.8576 H            1    LIG   0.0000
  59 H            5.6974     4.0204    -0.6061 H            1    LIG   0.0000
  60 H            7.0352     5.8116    -1.1586 H            1    LIG   0.0000
  61 H            6.7859     7.1646    -0.2789 H            1    LIG   0.0000
  62 H            8.1152     6.2532    -0.0162 H            1    LIG   0.0000
@<TRIPOS>BOND
   1        1        2 1
   2        2        3 ar
   3        3        4 ar
   4        4        5 ar
   5        5        6 1
   6        6        7 am
   7        7        8 2
   8        7        9 am
   9        9       10 1
  10       10       11 1
  11       10       12 2
  12       12       13 1
  13       13       14 1
  14       14       15 2
  15       14       16 1
  16       16       17 ar
  17       17       18 ar
  18       18       19 1
  19       19       20 1
  20       20       21 1
  21       21       19 1
  22       18       22 ar
  23       22       23 ar
  24       23       24 ar
  25       24       16 ar
  26       24       25 1
  27       25       26 1
  28       25       27 2
  29       27       28 1
  30       28       23 1
  31       28       29 1
  32       29       30 ar
  33       30       31 ar
  34       31       32 ar
  35       32       33 ar
  36       33       34 ar
  37       34       29 ar
  38        5       35 ar
  39       35       36 ar
  40       36        2 ar
  41       36       37 1
  42        1       38 1
  43        1       39 1
  44        1       40 1
  45        3       41 1
  46        4       42 1
  47        6       43 1
  48        9       44 1
  49       12       45 1
  50       17       46 1
  51       19       47 1
  52       20       48 1
  53       20       49 1
  54       21       50 1
  55       21       51 1
  56       26       52 1
  57       26       53 1
  58       26       54 1
  59       30       55 1
  60       31       56 1
  61       32       57 1
  62       33       58 1
  63       35       59 1
  64       37       60 1
  65       37       61 1
  66       37       62 1

@<TRIPOS>MOLECULE

  62   66
SMALL
USER_CHARGES
@<TRIPOS>ATOM
   1 C1           7.1148     7.0147     2.6136 C.3          1    LIG   0.0000
   2 C2           6.3693     5.7854     2.1196 C.ar         1    LIG   0.0000
   3 C3           5.6630     5.0209     3.0418 C.ar         1    LIG   0.0000
   4 C4           4.9663     3.8880     2.6344 C.ar         1    LIG   0.0000
   5 C5           4.9872     3.5316     1.2901 C.ar         1    LIG   0.0000
   6 N6           4.2873     2.3925     0.8755 N.am         1    LIG   0.0000
   7 C7           3.0550     2.1149     1.4058 C.2          1    LIG   0.0000
   8 O8           2.5756     2.8483     2.2257 O.2          1    LIG   0.0000
   9 N9           2.3700     1.0000     1.0000 N.am         1    LIG   0.0000
  10 C10          1.0000     1.0000     1.0000 C.2          1    LIG   0.0000
  11 O11          0.2900    -0.2298     1.0000 O.3          1    LIG  -1.0000
  12 C12          0.3500     2.1258     1.0000 C.2          1    LIG   0.0000
  13 O13          1.0050     3.2603     1.0000 O.3          1    LIG   0.0000
  14 C14          0.7750     4.0443     2.0240 C.2          1    LIG   0.0000
  15 O15          0.0069     3.7029     2.8804 O.2          1    LIG   0.0000
  16 C16          1.4483     5.3242     2.1225 C.ar         1    LIG   0.0000
  17 C17          1.6978     5.8058     3.4022 C.ar         1    LIG   0.0000
  18 C18          2.3412     7.0309     3.5346 C.ar         1    LIG   0.0000
  19 C19          2.6046     7.5393     4.9390 C.3          1    LIG   0.0000
  20 C20          3.8339     8.3497     5.2087 C.3          1    LIG   0.0000
  21 C21          2.4864     9.0194     5.1700 C.3          1    LIG   0.0000
  22 N22          2.7015     7.7090     2.4302 N.ar         1    LIG   0.0000
  23 C23          2.4731     7.2675     1.1800 C.ar         1    LIG   0.0000
  24 C24          1.8387     6.0630     1.0041 C.ar         1    LIG   0.0000
  25 C25          1.7474     5.8923    -0.4009 C.2          1    LIG   0.0000
  26 C26          1.1296     4.7110    -1.1320 C.3          1    LIG   0.0000
  27 N27          2.2832     6.9267    -1.0050 N.2          1    LIG   0.0000
  28 N28          2.7202     7.7461    -0.0760 N.pl3        1    LIG   0.0000
  29 C29          3.3574     8.9613    -0.3537 C.ar         1    LIG   0.0000
  30 C30          3.5359     9.3235    -1.6849 C.ar         1    LIG   0.0000
  31 C31          4.1659    10.5299    -1.9717 C.ar         1    LIG   0.0000
  32 C32          4.6030    11.3486    -0.9371 C.ar         1    LIG   0.0000
  33 C33          4.3954    10.9322     0.3733 C.ar         1    LIG   0.0000
  34 N34          3.7867     9.7654     0.6310 N.ar         1    LIG   0.0000
  35 C35          5.6903     4.2877     0.3575 C.ar         1    LIG   0.0000
  36 C36          6.3832     5.4186     0.7768 C.ar         1    LIG   0.0000
  37 C37          7.1451     6.2316    -0.2578 C.3          1    LIG   0.0000
  38 H            6.9845     7.1093     3.6005 H            1    LIG   0.0000
  39 H            8.0897     6.9160     2.4140 H            1    LIG   0.0000
  40 H            6.7605     7.8276     2.1512 H            1    LIG   0.0000
  41 H            5.6558     5.2877     4.0055 H            1    LIG   0.0000
  42 H            4.4584     3.3383     3.2977 H            1    LIG   0.0000
  43 H            4.6869     1.7813     0.1923 H            1    LIG   0.0000
  44 H            2.8700     0.1862     0.7038 H            1    LIG   0.0000
  45 H           -0.6500     2.1258     1.0000 H            1    LIG   0.0000
  46 H            1.4210     5.2834     4.2086 H            1    LIG   0.0000
  47 H            2.2928     6.9513     5.6853 H            1    LIG   0.0000
  48 H            4.4949     8.5140     4.4764 H            1    LIG   0.0000
  49 H            4.3177     8.2498     6.0781 H            1    LIG   0.0000
  50 H            2.0737     9.3631     6.0135 H            1    LIG   0.0000
  51 H            2.2509     9.6273     4.4118 H            1    LIG   0.0000
  52 H            0.7876     4.0484    -0.4657 H            1    LIG   0.0000
  53 H            0.3731     5.0307    -1.7026 H            1    LIG   0.0000
  54 H            1.8217     4.2769    -1.7087 H            1    LIG   0.0000
  55 H            3.2173     8.7275    -2.4219 H            1    LIG   0.0000
  56 H            4.3043    10.8082    -2.9221 H            1    LIG   0.0000
  57 H            5.0569    12.2183    -1.1309 H            1    LIG   0.0000
  58 H            4.7030    11.5083     1.1306 H            1    LIG   0.0000
  59 H            5.6974     4.0204    -0.6061 H            1    LIG   0.0000
  60 H            7.0352     5.8116    -1.1586 H            1    LIG   0.0000
  61 H            6.7859     7.1646    -0.2789 H            1    LIG   0.0000
  62 H            8.1152     6.2532    -0.0162 H            1    LIG   0.0000
@<TRIPOS>BOND
   1        1        2 1
   2        2        3 ar
   3        3        4 ar
   4        4        5 ar
   5        5        6 1
   6        6        7 am
   7        7        8 2
   8        7        9 am
   9        9       10 1
  10       10       11 1
  11       10       12 2
  12       12       13 1
  13       13       14 1
  14       14       15 2
  15       14       16 1
  16       16       17 ar
  17       17       18 ar
  18       18       19 1
  19       19       20 1
  20       20       21 1
  21       21       19 1
  22       18       22 ar
  23       22       23 ar
  24       23       24 ar
  25       24       16 ar
  26       24       25 1
  27       25       26 1
  28       25       27 2
  29       27       28 1
  30       28       23 1
  31       28       29 1
  32       29       30 ar
  33       30       31 ar
  34       31       32 ar
  35       32       33 ar
  36       33       34 ar
  37       34       29 ar
  38        5       35 ar
  39       35       36 ar
  40       36        2 ar
  41       36       37 1
  42        1       38 1
  43        1       39 1
  44        1       40 1
  45        3       41 1
  46        4       42 1
  47        6       43 1
  48        9       44 1
  49       12       45 1
  50       17       46 1
  51       19       47 1
  52       20       48 1
  53       20       49 1
  54       21       50 1
  55       21       51 1
  56       26       52 1
  57       26       53 1
  58       26       54 1
  59       30       55 1
  60       31       56 1
  61       32       57 1
  62       33       58 1
  63       35       59 1
  64       37       60 1
  65       37       61 1
  66       37       62 1

@<TRIPOS>MOLECULE

  62   66
SMALL
USER_CHARGES
@<TRIPOS>ATOM
   1 C1           7.1148     7.0147     2.6136 C.3          1    LIG   0.0000
   2 C2           6.3693     5.7854     2.1196 C.ar         1    LIG   0.0000
   3 C3           5.6630     5.0209     3.0418 C.ar         1    LIG   0.0000
   4 C4           4.9663     3.8880     2.6344 C.ar         1    LIG   0.0000
   5 C5           4.9872     3.5316     1.2901 C.ar         1    LIG   0.0000
   6 N6           4.2873     2.3925     0.8755 N.am         1    LIG   0.0000
   7 C7           3.0550     2.1149     1.4058 C.2          1    LIG   0.0000
   8 O8           2.5756     2.8483     2.2257 O.2          1    LIG   0.0000
   9 N9           2.3700     1.0000     1.0000 N.am         1    LIG   0.0000
  10 C10          1.0000     1.0000     1.0000 C.2          1    LIG   0.0000
  11 O11          0.2900    -0.2298     1.0000 O.3          1    LIG  -1.0000
  12 C12          0.3500     2.1258     1.0000 C.2          1    LIG   0.0000
  13 O13          1.0050     3.2603     1.0000 O.3          1    LIG   0.0000
  14 C14          0.7750     4.0443     2.0240 C.2          1    LIG   0.0000
  15 O15          0.1523     3.6354     2.9648 O.2          1    LIG   0.0000
  16 C16          1.2726     5.4057     2.0206 C.ar         1    LIG   0.0000
  17 C17          2.4462     5.6438     1.3150 C.ar         1    LIG   0.0000
  18 C18          2.9531     6.9379     1.2908 C.ar         1    LIG   0.0000
  19 C19          4.2345     7.1774     0.5156 C.3          1    LIG   0.0000
  20 C20          4.4414     8.4894    -0.1747 C.3          1    LIG   0.0000
  21 C21          5.2072     8.1729     1.0819 C.3          1    LIG   0.0000
  22 N22          2.2988     7.9144     1.9445 N.ar         1    LIG   0.0000
  23 C23          1.1616     7.7134     2.6349 C.ar         1    LIG   0.0000
  24 C24          0.6277     6.4499     2.6860 C.ar         1    LIG   0.0000
  25 C25         -0.5416     6.5719     3.4794 C.2          1    LIG   0.0000
  26 C26         -1.5096     5.4577     3.8442 C.3          1    LIG   0.0000
  27 N27         -0.6786     7.8167     3.8716 N.2          1    LIG   0.0000
  28 N28          0.3245     8.5025     3.3725 N.pl3        1    LIG   0.0000
  29 C29          0.5034     9.8751     3.5819 C.ar         1    LIG   0.0000
  30 C30         -0.4291    10.5503     4.3627 C.ar         1    LIG   0.0000
  31 C31         -0.2594    11.9138     4.5788 C.ar         1    LIG   0.0000
  32 C32          0.8269    12.5760     4.0193 C.ar         1    LIG   0.0000
  33 C33          1.7253    11.8465     3.2485 C.ar         1    LIG   0.0000
  34 N34          1.5454    10.5323     3.0503 N.ar         1    LIG   0.0000
  35 C35          5.6903     4.2877     0.3575 C.ar         1    LIG   0.0000
  36 C36          6.3832     5.4186     0.7768 C.ar         1    LIG   0.0000
  37 C37          7.1451     6.2316    -0.2578 C.3          1    LIG   0.0000
  38 H            6.9845     7.1093     3.6005 H            1    LIG   0.0000
  39 H            8.0897     6.9160     2.4140 H            1    LIG   0.0000
  40 H            6.7605     7.8276     2.1512 H            1    LIG   0.0000
  41 H            5.6558     5.2877     4.0055 H            1    LIG   0.0000
  42 H            4.4584     3.3383     3.2977 H            1    LIG   0.0000
  43 H            4.6869     1.7813     0.1923 H            1    LIG   0.0000
  44 H            2.8700     0.1862     0.7038 H            1    LIG   0.0000
  45 H           -0.6500     2.1258     1.0000 H            1    LIG   0.0000
  46 H            2.9149     4.9015     0.8361 H            1    LIG   0.0000
  47 H            4.6343     6.3772     0.0685 H            1    LIG   0.0000
  48 H            3.7198     9.1816    -0.1594 H            1    LIG   0.0000
  49 H            4.9159     8.5220    -1.0544 H            1    LIG   0.0000
  50 H            6.1900     7.9937     1.0377 H            1    LIG   0.0000
  51 H            4.9939     8.6533     1.9327 H            1    LIG   0.0000
  52 H           -1.2008     4.6000     3.4332 H            1    LIG   0.0000
  53 H           -1.5433     5.3577     4.8386 H            1    LIG   0.0000
  54 H           -2.4215     5.6826     3.5008 H            1    LIG   0.0000
  55 H           -1.2070    10.0645     4.7612 H            1    LIG   0.0000
  56 H           -0.9189    12.4176     5.1367 H            1    LIG   0.0000
  57 H            0.9596    13.5559     4.1679 H            1    LIG   0.0000
  58 H            2.5130    12.3060     2.8382 H            1    LIG   0.0000
  59 H            5.6974     4.0204    -0.6061 H            1    LIG   0.0000
  60 H            7.0352     5.8116    -1.1586 H            1    LIG   0.0000
  61 H            6.7859     7.1646    -0.2789 H            1    LIG   0.0000
  62 H            8.1152     6.2532    -0.0162 H            1    LIG   0.0000
@<TRIPOS>BOND
   1        1        2 1
   2        2        3 ar
   3        3        4 ar
   4        4        5 ar
   5        5        6 1
   6        6        7 am
   7        7        8 2
   8        7        9 am
   9        9       10 1
  10       10       11 1
  11       10       12 2
  12       12       13 1
  13       13       14 1
  14       14       15 2
  15       14       16 1
  16       16       17 ar
  17       17       18 ar
  18       18       19 1
  19       19       20 1
  20       20       21 1
  21       21       19 1
  22       18       22 ar
  23       22       23 ar
  24       23       24 ar
  25       24       16 ar
  26       24       25 1
  27       25       26 1
  28       25       27 2
  29       27       28 1
  30       28       23 1
  31       28       29 1
  32       29       30 ar
  33       30       31 ar
  34       31       32 ar
  35       32       33 ar
  36       33       34 ar
  37       34       29 ar
  38        5       35 ar
  39       35       36 ar
  40       36        2 ar
  41       36       37 1
  42        1       38 1
  43        1       39 1
  44        1       40 1
  45        3       41 1
  46        4       42 1
  47        6       43 1
  48        9       44 1
  49       12       45 1
  50       17       46 1
  51       19       47 1
  52       20       48 1
  53       20       49 1
  54       21       50 1
  55       21       51 1
  56       26       52 1
  57       26       53 1
  58       26       54 1
  59       30       55 1
  60       31       56 1
  61       32       57 1
  62       33       58 1
  63       35       59 1
  64       37       60 1
  65       37       61 1
  66       37       62 1

@<TRIPOS>MOLECULE

  62   66
SMALL
USER_CHARGES
@<TRIPOS>ATOM
   1 C1           7.0908     7.0556     2.5418 C.3          1    LIG   0.0000
   2 C2           6.3659     5.7920     2.1072 C.ar         1    LIG   0.0000
   3 C3           5.1144     5.9142     1.5133 C.ar         1    LIG   0.0000
   4 C4           4.4151     4.7851     1.1001 C.ar         1    LIG   0.0000
   5 C5           4.9872     3.5316     1.2901 C.ar         1    LIG   0.0000
   6 N6           4.2873     2.3925     0.8755 N.am         1    LIG   0.0000
   7 C7           3.0550     2.1149     1.4058 C.2          1    LIG   0.0000
   8 O8           2.5756     2.8483     2.2257 O.2          1    LIG   0.0000
   9 N9           2.3700     1.0000     1.0000 N.am         1    LIG   0.0000
  10 C10          1.0000     1.0000     1.0000 C.2          1    LIG   0.0000
  11 O11          0.2900    -0.2298     1.0000 O.3          1    LIG  -1.0000
  12 C12          0.3500     2.1258     1.0000 C.2          1    LIG   0.0000
  13 O13          1.0050     3.2603     1.0000 O.3          1    LIG   0.0000
  14 C14          0.4002     4.2607     1.5912 C.2          1    LIG   0.0000
  15 O15         -0.7868     4.2265     1.7644 O.2          1    LIG   0.0000
  16 C16          1.1647     5.4090     2.0362 C.ar         1    LIG   0.0000
  17 C17          2.1668     5.1729     2.9700 C.ar         1    LIG   0.0000
  18 C18          2.9197     6.2512     3.4199 C.ar         1    LIG   0.0000
  19 C19          4.0084     5.9733     4.4386 C.3          1    LIG   0.0000
  20 C20          3.8121     4.8824     5.4448 C.3          1    LIG   0.0000
  21 C21          4.7697     4.6852     4.3003 C.3          1    LIG   0.0000
  22 N22          2.6599     7.4816     2.9424 N.ar         1    LIG   0.0000
  23 C23          1.6971     7.7395     2.0387 C.ar         1    LIG   0.0000
  24 C24          0.9290     6.7034     1.5693 C.ar         1    LIG   0.0000
  25 C25          0.0222     7.2972     0.6546 C.2          1    LIG   0.0000
  26 C26         -1.0502     6.5821    -0.1519 C.3          1    LIG   0.0000
  27 N27          0.2386     8.5903     0.5981 N.2          1    LIG   0.0000
  28 N28          1.2329     8.8620     1.4125 N.pl3        1    LIG   0.0000
  29 C29          1.7428    10.1510     1.6078 C.ar         1    LIG   0.0000
  30 C30          0.8484    11.1786     1.8894 C.ar         1    LIG   0.0000
  31 C31          1.3448    12.4627     2.0874 C.ar         1    LIG   0.0000
  32 C32          2.7117    12.6997     2.0029 C.ar         1    LIG   0.0000
  33 C33          3.5555    11.6317     1.7187 C.ar         1    LIG   0.0000
  34 N34          3.0589    10.4002     1.5302 N.ar         1    LIG   0.0000
  35 C35          6.2384     3.3956     1.8833 C.ar         1    LIG   0.0000
  36 C36          6.9282     4.5321     2.2925 C.ar         1    LIG   0.0000
  37 C37          8.2941     4.3623     2.9383 C.3          1    LIG   0.0000
  38 H            6.5285     7.8537     2.3251 H            1    LIG   0.0000
  39 H            7.2569     7.0224     3.5273 H            1    LIG   0.0000
  40 H            7.9639     7.1219     2.0587 H            1    LIG   0.0000
  41 H            4.7140     6.8211     1.3823 H            1    LIG   0.0000
  42 H            3.5152     4.8731     0.6731 H            1    LIG   0.0000
  43 H            4.6869     1.7813     0.1923 H            1    LIG   0.0000
  44 H            2.8700     0.1862     0.7038 H            1    LIG   0.0000
  45 H           -0.6500     2.1258     1.0000 H            1    LIG   0.0000
  46 H            2.3419     4.2490     3.3101 H            1    LIG   0.0000
  47 H            4.5360     6.7653     4.7458 H            1    LIG   0.0000
  48 H            2.9512     4.3742     5.4695 H            1    LIG   0.0000
  49 H            4.1612     4.9921     6.3754 H            1    LIG   0.0000
  50 H            5.7551     4.6653     4.4696 H            1    LIG   0.0000
  51 H            4.5451     4.0473     3.5637 H            1    LIG   0.0000
  52 H           -1.0265     5.6041     0.0555 H            1    LIG   0.0000
  53 H           -1.9483     6.9517     0.0863 H            1    LIG   0.0000
  54 H           -0.8810     6.7201    -1.1277 H            1    LIG   0.0000
  55 H           -0.1333    10.9974     1.9485 H            1    LIG   0.0000
  56 H            0.7184    13.2152     2.2904 H            1    LIG   0.0000
  57 H            3.0804    13.6186     2.1436 H            1    LIG   0.0000
  58 H            4.5418    11.7833     1.6543 H            1    LIG   0.0000
  59 H            6.6384     2.4885     2.0143 H            1    LIG   0.0000
  60 H            8.5233     3.3900     2.9828 H            1    LIG   0.0000
  61 H            8.9821     4.8424     2.3941 H            1    LIG   0.0000
  62 H            8.2753     4.7430     3.8628 H            1    LIG   0.0000
@<TRIPOS>BOND
   1        1        2 1
   2        2        3 ar
   3        3        4 ar
   4        4        5 ar
   5        5        6 1
   6        6        7 am
   7        7        8 2
   8        7        9 am
   9        9       10 1
  10       10       11 1
  11       10       12 2
  12       12       13 1
  13       13       14 1
  14       14       15 2
  15       14       16 1
  16       16       17 ar
  17       17       18 ar
  18       18       19 1
  19       19       20 1
  20       20       21 1
  21       21       19 1
  22       18       22 ar
  23       22       23 ar
  24       23       24 ar
  25       24       16 ar
  26       24       25 1
  27       25       26 1
  28       25       27 2
  29       27       28 1
  30       28       23 1
  31       28       29 1
  32       29       30 ar
  33       30       31 ar
  34       31       32 ar
  35       32       33 ar
  36       33       34 ar
  37       34       29 ar
  38        5       35 ar
  39       35       36 ar
  40       36        2 ar
  41       36       37 1
  42        1       38 1
  43        1       39 1
  44        1       40 1
  45        3       41 1
  46        4       42 1
  47        6       43 1
  48        9       44 1
  49       12       45 1
  50       17       46 1
  51       19       47 1
  52       20       48 1
  53       20       49 1
  54       21       50 1
  55       21       51 1
  56       26       52 1
  57       26       53 1
  58       26       54 1
  59       30       55 1
  60       31       56 1
  61       32       57 1
  62       33       58 1
  63       35       59 1
  64       37       60 1
  65       37       61 1
  66       37       62 1

@<TRIPOS>MOLECULE

  62   66
SMALL
USER_CHARGES
@<TRIPOS>ATOM
   1 C1           7.0908     7.0556     2.5418 C.3          1    LIG   0.0000
   2 C2           6.3659     5.7920     2.1072 C.ar         1    LIG   0.0000
   3 C3           5.1144     5.9142     1.5133 C.ar         1    LIG   0.0000
   4 C4           4.4151     4.7851     1.1001 C.ar         1    LIG   0.0000
   5 C5           4.9872     3.5316     1.2901 C.ar         1    LIG   0.0000
   6 N6           4.2873     2.3925     0.8755 N.am         1    LIG   0.0000
   7 C7           3.0550     2.1149     1.4058 C.2          1    LIG   0.0000
   8 O8           2.5756     2.8483     2.2257 O.2          1    LIG   0.0000
   9 N9           2.3700     1.0000     1.0000 N.am         1    LIG   0.0000
  10 C10          1.0000     1.0000     1.0000 C.2          1    LIG   0.0000
  11 O11          0.2900    -0.2298     1.0000 O.3          1    LIG  -1.0000
  12 C12          0.3500     2.1258     1.0000 C.2          1    LIG   0.0000
  13 O13          1.0050     3.2603     1.0000 O.3          1    LIG   0.0000
  14 C14          0.4002     4.2607     0.4088 C.2          1    LIG   0.0000
  15 O15         -0.7473     4.1548     0.0740 O.2          1    LIG   0.0000
  16 C16          1.1170     5.4955     0.1591 C.ar         1    LIG   0.0000
  17 C17          2.2497     5.4133    -0.6423 C.ar         1    LIG   0.0000
  18 C18          2.9626     6.5779    -0.9024 C.ar         1    LIG   0.0000
  19 C19          4.1954     6.4676    -1.7788 C.3          1    LIG   0.0000
  20 C20          5.0255     5.2230    -1.7262 C.3          1    LIG   0.0000
  21 C21          4.1461     5.4895    -2.9184 C.3          1    LIG   0.0000
  22 N22          2.5393     7.7412    -0.3763 N.ar         1    LIG   0.0000
  23 C23          1.4473     7.8507     0.4021 C.ar         1    LIG   0.0000
  24 C24          0.7153     6.7246     0.6853 C.ar         1    LIG   0.0000
  25 C25         -0.3452     7.1693     1.5155 C.2          1    LIG   0.0000
  26 C26         -1.4519     6.3123     2.1092 C.3          1    LIG   0.0000
  27 N27         -0.2375     8.4625     1.7110 N.2          1    LIG   0.0000
  28 N28          0.8202     8.8767     1.0514 N.pl3        1    LIG   0.0000
  29 C29          1.2440    10.2108     1.0281 C.ar         1    LIG   0.0000
  30 C30          2.5988    10.4757     1.2004 C.ar         1    LIG   0.0000
  31 C31          3.0307    11.7976     1.1767 C.ar         1    LIG   0.0000
  32 C32          2.1144    12.8244     0.9828 C.ar         1    LIG   0.0000
  33 C33          0.7735    12.4964     0.8161 C.ar         1    LIG   0.0000
  34 N34          0.3750    11.2161     0.8425 N.ar         1    LIG   0.0000
  35 C35          6.2384     3.3956     1.8833 C.ar         1    LIG   0.0000
  36 C36          6.9282     4.5321     2.2925 C.ar         1    LIG   0.0000
  37 C37          8.2941     4.3623     2.9383 C.3          1    LIG   0.0000
  38 H            6.5285     7.8537     2.3251 H            1    LIG   0.0000
  39 H            7.2569     7.0224     3.5273 H            1    LIG   0.0000
  40 H            7.9639     7.1219     2.0587 H            1    LIG   0.0000
  41 H            4.7140     6.8211     1.3823 H            1    LIG   0.0000
  42 H            3.5152     4.8731     0.6731 H            1    LIG   0.0000
  43 H            4.6869     1.7813     0.1923 H            1    LIG   0.0000
  44 H            2.8700     0.1862     0.7038 H            1    LIG   0.0000
  45 H           -0.6500     2.1258     1.0000 H            1    LIG   0.0000
  46 H            2.5448     4.5369    -1.0228 H            1    LIG   0.0000
  47 H            4.6901     7.3193    -1.9513 H            1    LIG   0.0000
  48 H            4.7906     4.4923    -1.0852 H            1    LIG   0.0000
  49 H            6.0198     5.2813    -1.8155 H            1    LIG   0.0000
  50 H            4.5553     5.7262    -3.7996 H            1    LIG   0.0000
  51 H            3.3262     4.9373    -3.0693 H            1    LIG   0.0000
  52 H           -1.3274     5.3622     1.8233 H            1    LIG   0.0000
  53 H           -1.4172     6.3675     3.1070 H            1    LIG   0.0000
  54 H           -2.3389     6.6437     1.7876 H            1    LIG   0.0000
  55 H            3.2500     9.7295     1.3387 H            1    LIG   0.0000
  56 H            4.0003    12.0091     1.2991 H            1    LIG   0.0000
  57 H            2.4130    13.7786     0.9636 H            1    LIG   0.0000
  58 H            0.0999    13.2220     0.6752 H            1    LIG   0.0000
  59 H            6.6384     2.4885     2.0143 H            1    LIG   0.0000
  60 H            8.5233     3.3900     2.9828 H            1    LIG   0.0000
  61 H            8.9821     4.8424     2.3941 H            1    LIG   0.0000
  62 H            8.2753     4.7430     3.8628 H            1    LIG   0.0000
@<TRIPOS>BOND
   1        1        2 1
   2        2        3 ar
   3        3        4 ar
   4        4        5 ar
   5        5        6 1
   6        6        7 am
   7        7        8 2
   8        7        9 am
   9        9       10 1
  10       10       11 1
  11       10       12 2
  12       12       13 1
  13       13       14 1
  14       14       15 2
  15       14       16 1
  16       16       17 ar
  17       17       18 ar
  18       18       19 1
  19       19       20 1
  20       20       21 1
  21       21       19 1
  22       18       22 ar
  23       22       23 ar
  24       23       24 ar
  25       24       16 ar
  26       24       25 1
  27       25       26 1
  28       25       27 2
  29       27       28 1
  30       28       23 1
  31       28       29 1
  32       29       30 ar
  33       30       31 ar
  34       31       32 ar
  35       32       33 ar
  36       33       34 ar
  37       34       29 ar
  38        5       35 ar
  39       35       36 ar
  40       36        2 ar
  41       36       37 1
  42        1       38 1
  43        1       39 1
  44        1       40 1
  45        3       41 1
  46        4       42 1
  47        6       43 1
  48        9       44 1
  49       12       45 1
  50       17       46 1
  51       19       47 1
  52       20       48 1
  53       20       49 1
  54       21       50 1
  55       21       51 1
  56       26       52 1
  57       26       53 1
  58       26       54 1
  59       30       55 1
  60       31       56 1
  61       32       57 1
  62       33       58 1
  63       35       59 1
  64       37       60 1
  65       37       61 1
  66       37       62 1

@<TRIPOS>MOLECULE

  62   66
SMALL
USER_CHARGES
@<TRIPOS>ATOM
   1 C1           7.1500     7.0314     2.5083 C.3          1    LIG   0.0000
   2 C2           6.3760     5.7876     2.1021 C.ar         1    LIG   0.0000
   3 C3           6.3802     5.4093     0.7640 C.ar         1    LIG   0.0000
   4 C4           5.6858     4.2783     0.3473 C.ar         1    LIG   0.0000
   5 C5           4.9872     3.5316     1.2901 C.ar         1    LIG   0.0000
   6 N6           4.2873     2.3925     0.8755 N.am         1    LIG   0.0000
   7 C7           3.0550     2.1149     1.4058 C.2          1    LIG   0.0000
   8 O8           2.5756     2.8483     2.2257 O.2          1    LIG   0.0000
   9 N9           2.3700     1.0000     1.0000 N.am         1    LIG   0.0000
  10 C10          1.0000     1.0000     1.0000 C.2          1    LIG   0.0000
  11 O11          0.2900    -0.2298     1.0000 O.3          1    LIG  -1.0000
  12 C12          0.3500     2.1258     1.0000 C.2          1    LIG   0.0000
  13 O13          1.0050     3.2603     1.0000 O.3          1    LIG   0.0000
  14 C14          0.7750     4.0443    -0.0240 C.2          1    LIG   0.0000
  15 O15          0.0069     3.7029    -0.8804 O.2          1    LIG   0.0000
  16 C16          1.4483     5.3242    -0.1225 C.ar         1    LIG   0.0000
  17 C17          1.2253     6.2320     0.9061 C.ar         1    LIG   0.0000
  18 C18          1.8543     7.4701     0.8442 C.ar         1    LIG   0.0000
  19 C19          1.5984     8.4468     1.9759 C.3          1    LIG   0.0000
  20 C20          1.7092     9.9170     1.7169 C.3          1    LIG   0.0000
  21 C21          0.3544     9.2857     1.8949 C.3          1    LIG   0.0000
  22 N22          2.6543     7.7515    -0.1998 N.ar         1    LIG   0.0000
  23 C23          2.8884     6.8929    -1.2088 C.ar         1    LIG   0.0000
  24 C24          2.2857     5.6598    -1.1878 C.ar         1    LIG   0.0000
  25 C25          2.7241     5.0113    -2.3705 C.2          1    LIG   0.0000
  26 C26          2.3496     3.6105    -2.8280 C.3          1    LIG   0.0000
  27 N27          3.5207     5.8105    -3.0405 N.2          1    LIG   0.0000
  28 N28          3.6278     6.9275    -2.3576 N.pl3        1    LIG   0.0000
  29 C29          4.4064     8.0152    -2.7706 C.ar         1    LIG   0.0000
  30 C30          4.4435     9.1454    -1.9604 C.ar         1    LIG   0.0000
  31 C31          5.2158    10.2307    -2.3605 C.ar         1    LIG   0.0000
  32 C32          5.9323    10.1727    -3.5500 C.ar         1    LIG   0.0000
  33 C33          5.8554     9.0153    -4.3168 C.ar         1    LIG   0.0000
  34 N34          5.1051     7.9786    -3.9156 N.ar         1    LIG   0.0000
  35 C35          4.9748     3.8995     2.6319 C.ar         1    LIG   0.0000
  36 C36          5.6728     5.0326     3.0366 C.ar         1    LIG   0.0000
  37 C37          5.6471     5.4177     4.5072 C.3          1    LIG   0.0000
  38 H            7.5845     7.4319     1.7015 H            1    LIG   0.0000
  39 H            6.5231     7.6965     2.9140 H            1    LIG   0.0000
  40 H            7.8517     6.7840     3.1764 H            1    LIG   0.0000
  41 H            6.8864     5.9546     0.0959 H            1    LIG   0.0000
  42 H            5.6889     4.0064    -0.6150 H            1    LIG   0.0000
  43 H            4.6869     1.7813     0.1923 H            1    LIG   0.0000
  44 H            2.8700     0.1862     0.7038 H            1    LIG   0.0000
  45 H           -0.6500     2.1258     1.0000 H            1    LIG   0.0000
  46 H            0.6265     6.0000     1.6726 H            1    LIG   0.0000
  47 H            1.8634     8.1400     2.8901 H            1    LIG   0.0000
  48 H            1.9930    10.2459     0.8162 H            1    LIG   0.0000
  49 H            2.0751    10.5228     2.4234 H            1    LIG   0.0000
  50 H           -0.1796     9.4704     2.7200 H            1    LIG   0.0000
  51 H           -0.2617     9.1934     1.1127 H            1    LIG   0.0000
  52 H            1.7342     3.1946    -2.1585 H            1    LIG   0.0000
  53 H            1.8917     3.6610    -3.7156 H            1    LIG   0.0000
  54 H            3.1768     3.0546    -2.9109 H            1    LIG   0.0000
  55 H            3.9246     9.1769    -1.1062 H            1    LIG   0.0000
  56 H            5.2554    11.0528    -1.7925 H            1    LIG   0.0000
  57 H            6.4912    10.9466    -3.8479 H            1    LIG   0.0000
  58 H            6.3644     8.9553    -5.1755 H            1    LIG   0.0000
  59 H            4.4683     3.3540     3.2997 H            1    LIG   0.0000
  60 H            5.0934     4.7576     5.0150 H            1    LIG   0.0000
  61 H            6.5797     5.4180     4.8681 H            1    LIG   0.0000
  62 H            5.2512     6.3306     4.6058 H            1    LIG   0.0000
@<TRIPOS>BOND
   1        1        2 1
   2        2        3 ar
   3        3        4 ar
   4        4        5 ar
   5        5        6 1
   6        6        7 am
   7        7        8 2
   8        7        9 am
   9        9       10 1
  10       10       11 1
  11       10       12 2
  12       12       13 1
  13       13       14 1
  14       14       15 2
  15       14       16 1
  16       16       17 ar
  17       17       18 ar
  18       18       19 1
  19       19       20 1
  20       20       21 1
  21       21       19 1
  22       18       22 ar
  23       22       23 ar
  24       23       24 ar
  25       24       16 ar
  26       24       25 1
  27       25       26 1
  28       25       27 2
  29       27       28 1
  30       28       23 1
  31       28       29 1
  32       29       30 ar
  33       30       31 ar
  34       31       32 ar
  35       32       33 ar
  36       33       34 ar
  37       34       29 ar
  38        5       35 ar
  39       35       36 ar
  40       36        2 ar
  41       36       37 1
  42        1       38 1
  43        1       39 1
  44        1       40 1
  45        3       41 1
  46        4       42 1
  47        6       43 1
  48        9       44 1
  49       12       45 1
  50       17       46 1
  51       19       47 1
  52       20       48 1
  53       20       49 1
  54       21       50 1
  55       21       51 1
  56       26       52 1
  57       26       53 1
  58       26       54 1
  59       30       55 1
  60       31       56 1
  61       32       57 1
  62       33       58 1
  63       35       59 1
  64       37       60 1
  65       37       61 1
  66       37       62 1

@<TRIPOS>MOLECULE

  62   66
SMALL
USER_CHARGES
@<TRIPOS>ATOM
   1 C1           7.1335     7.0417     2.5080 C.3          1    LIG   0.0000
   2 C2           6.3733     5.7894     2.1019 C.ar         1    LIG   0.0000
   3 C3           6.0219     5.6287     0.7661 C.ar         1    LIG   0.0000
   4 C4           5.3261     4.4986     0.3495 C.ar         1    LIG   0.0000
   5 C5           4.9872     3.5316     1.2901 C.ar         1    LIG   0.0000
   6 N6           4.2873     2.3925     0.8755 N.am         1    LIG   0.0000
   7 C7           3.0550     2.1149     1.4058 C.2          1    LIG   0.0000
   8 O8           2.5756     2.8483     2.2257 O.2          1    LIG   0.0000
   9 N9           2.3700     1.0000     1.0000 N.am         1    LIG   0.0000
  10 C10          1.0000     1.0000     1.0000 C.2          1    LIG   0.0000
  11 O11          0.2900    -0.2298     1.0000 O.3          1    LIG  -1.0000
  12 C12          0.3500     2.1258     1.0000 C.2          1    LIG   0.0000
  13 O13          1.0050     3.2603     1.0000 O.3          1    LIG   0.0000
  14 C14          0.5629     4.1668     1.8361 C.2          1    LIG   0.0000
  15 O15         -0.5554     4.0929     2.2650 O.2          1    LIG   0.0000
  16 C16          1.4246     5.2590     2.2431 C.ar         1    LIG   0.0000
  17 C17          1.8984     6.0935     1.2377 C.ar         1    LIG   0.0000
  18 C18          2.7281     7.1512     1.5915 C.ar         1    LIG   0.0000
  19 C19          3.2347     8.0505     0.4803 C.3          1    LIG   0.0000
  20 C20          4.7091     8.2322     0.2965 C.3          1    LIG   0.0000
  21 C21          3.9288     7.3913    -0.6780 C.3          1    LIG   0.0000
  22 N22          3.0455     7.3356     2.8855 N.ar         1    LIG   0.0000
  23 C23          2.6018     6.5444     3.8792 C.ar         1    LIG   0.0000
  24 C24          1.7814     5.4873     3.5734 C.ar         1    LIG   0.0000
  25 C25          1.5015     4.8622     4.8153 C.2          1    LIG   0.0000
  26 C26          0.6284     3.6373     5.0370 C.3          1    LIG   0.0000
  27 N27          2.1202     5.5029     5.7791 N.2          1    LIG   0.0000
  28 N28          2.7723     6.5048     5.2345 N.pl3        1    LIG   0.0000
  29 C29          3.5471     7.4125     5.9662 C.ar         1    LIG   0.0000
  30 C30          4.1901     8.4360     5.2777 C.ar         1    LIG   0.0000
  31 C31          4.9607     9.3446     5.9955 C.ar         1    LIG   0.0000
  32 C32          5.0765     9.2201     7.3749 C.ar         1    LIG   0.0000
  33 C33          4.4097     8.1762     8.0067 C.ar         1    LIG   0.0000
  34 N34          3.6715     7.3091     7.2982 N.ar         1    LIG   0.0000
  35 C35          5.3325     3.6805     2.6297 C.ar         1    LIG   0.0000
  36 C36          6.0283     4.8150     3.0343 C.ar         1    LIG   0.0000
  37 C37          6.3966     4.9589     4.5024 C.3          1    LIG   0.0000
  38 H            7.2857     7.6150     1.7028 H            1    LIG   0.0000
  39 H            6.6004     7.5509     3.1837 H            1    LIG   0.0000
  40 H            8.0143     6.7831     2.9044 H            1    LIG   0.0000
  41 H            6.2714     6.3312     0.0995 H            1    LIG   0.0000
  42 H            5.0735     4.3831    -0.6111 H            1    LIG   0.0000
  43 H            4.6869     1.7813     0.1923 H            1    LIG   0.0000
  44 H            2.8700     0.1862     0.7038 H            1    LIG   0.0000
  45 H           -0.6500     2.1258     1.0000 H            1    LIG   0.0000
  46 H            1.6482     5.9368     0.2823 H            1    LIG   0.0000
  47 H            2.6631     8.8406     0.2588 H            1    LIG   0.0000
  48 H            5.3491     7.7982     0.9306 H            1    LIG   0.0000
  49 H            5.0718     9.1198     0.0124 H            1    LIG   0.0000
  50 H            3.7713     7.7202    -1.6092 H            1    LIG   0.0000
  51 H            4.0486     6.3986    -0.6909 H            1    LIG   0.0000
  52 H            0.2648     3.3239     4.1597 H            1    LIG   0.0000
  53 H            1.1747     2.9090     5.4507 H            1    LIG   0.0000
  54 H           -0.1285     3.8734     5.6463 H            1    LIG   0.0000
  55 H            4.1000     8.5171     4.2851 H            1    LIG   0.0000
  56 H            5.4314    10.0873     5.5192 H            1    LIG   0.0000
  57 H            5.6274     9.8674     7.9018 H            1    LIG   0.0000
  58 H            4.4812     8.0710     8.9985 H            1    LIG   0.0000
  59 H            5.0826     2.9779     3.2960 H            1    LIG   0.0000
  60 H            6.0645     4.1632     5.0089 H            1    LIG   0.0000
  61 H            7.3907     5.0201     4.5922 H            1    LIG   0.0000
  62 H            5.9768     5.7880     4.8716 H            1    LIG   0.0000
@<TRIPOS>BOND
   1        1        2 1
   2        2        3 ar
   3        3        4 ar
   4        4        5 ar
   5        5        6 1
   6        6        7 am
   7        7        8 2
   8        7        9 am
   9        9       10 1
  10       10       11 1
  11       10       12 2
  12       12       13 1
  13       13       14 1
  14       14       15 2
  15       14       16 1
  16       16       17 ar
  17       17       18 ar
  18       18       19 1
  19       19       20 1
  20       20       21 1
  21       21       19 1
  22       18       22 ar
  23       22       23 ar
  24       23       24 ar
  25       24       16 ar
  26       24       25 1
  27       25       26 1
  28       25       27 2
  29       27       28 1
  30       28       23 1
  31       28       29 1
  32       29       30 ar
  33       30       31 ar
  34       31       32 ar
  35       32       33 ar
  36       33       34 ar
  37       34       29 ar
  38        5       35 ar
  39       35       36 ar
  40       36        2 ar
  41       36       37 1
  42        1       38 1
  43        1       39 1
  44        1       40 1
  45        3       41 1
  46        4       42 1
  47        6       43 1
  48        9       44 1
  49       12       45 1
  50       17       46 1
  51       19       47 1
  52       20       48 1
  53       20       49 1
  54       21       50 1
  55       21       51 1
  56       26       52 1
  57       26       53 1
  58       26       54 1
  59       30       55 1
  60       31       56 1
  61       32       57 1
  62       33       58 1
  63       35       59 1
  64       37       60 1
  65       37       61 1
  66       37       62 1

@<TRIPOS>MOLECULE

  62   66
SMALL
USER_CHARGES
@<TRIPOS>ATOM
   1 C1           7.8289     5.8613     3.6694 C.3          1    LIG   0.0000
   2 C2           6.8919     4.9478     2.8956 C.ar         1    LIG   0.0000
   3 C3           6.1286     4.0252     3.6027 C.ar         1    LIG   0.0000
   4 C4           5.2579     3.1696     2.9359 C.ar         1    LIG   0.0000
   5 C5           5.1625     3.2513     1.5508 C.ar         1    LIG   0.0000
   6 N6           4.2873     2.3925     0.8755 N.am         1    LIG   0.0000
   7 C7           3.0550     2.1149     1.4058 C.2          1    LIG   0.0000
   8 O8           2.5756     2.8483     2.2257 O.2          1    LIG   0.0000
   9 N9           2.3700     1.0000     1.0000 N.am         1    LIG   0.0000
  10 C10          1.0000     1.0000     1.0000 C.2          1    LIG   0.0000
  11 O11          0.2900    -0.2298     1.0000 O.3          1    LIG  -1.0000
  12 C12          0.3500     2.1258     1.0000 C.2          1    LIG   0.0000
  13 O13          1.0050     3.2603     1.0000 O.3          1    LIG   0.0000
  14 C14          0.7750     4.0443     2.0240 C.2          1    LIG   0.0000
  15 O15          0.1523     3.6354     2.9648 O.2          1    LIG   0.0000
  16 C16          1.2726     5.4057     2.0206 C.ar         1    LIG   0.0000
  17 C17          2.1504     5.7562     3.0397 C.ar         1    LIG   0.0000
  18 C18          2.6471     7.0541     3.0682 C.ar         1    LIG   0.0000
  19 C19          3.6035     7.4172     4.1880 C.3          1    LIG   0.0000
  20 C20          5.0680     7.1591     4.0162 C.3          1    LIG   0.0000
  21 C21          4.5405     8.5673     3.9489 C.3          1    LIG   0.0000
  22 N22          2.2681     7.9261     2.1168 N.ar         1    LIG   0.0000
  23 C23          1.4207     7.6149     1.1191 C.ar         1    LIG   0.0000
  24 C24          0.9053     6.3443     1.0546 C.ar         1    LIG   0.0000
  25 C25          0.0608     6.3429    -0.0848 C.2          1    LIG   0.0000
  26 C26         -0.7529     5.1700    -0.6083 C.3          1    LIG   0.0000
  27 N27          0.0744     7.5303    -0.6434 N.2          1    LIG   0.0000
  28 N28          0.8813     8.2907     0.0609 N.pl3        1    LIG   0.0000
  29 C29          1.1449     9.6311    -0.2454 C.ar         1    LIG   0.0000
  30 C30          2.0210    10.3351     0.5743 C.ar         1    LIG   0.0000
  31 C31          2.2914    11.6668     0.2775 C.ar         1    LIG   0.0000
  32 C32          1.6907    12.2695    -0.8214 C.ar         1    LIG   0.0000
  33 C33          0.8242    11.5136    -1.6033 C.ar         1    LIG   0.0000
  34 N34          0.5748    10.2309    -1.3016 N.ar         1    LIG   0.0000
  35 C35          5.9209     4.1697     0.8315 C.ar         1    LIG   0.0000
  36 C36          6.7882     5.0200     1.5093 C.ar         1    LIG   0.0000
  37 C37          7.6078     6.0167     0.7053 C.3          1    LIG   0.0000
  38 H            7.7613     5.6579     4.6461 H            1    LIG   0.0000
  39 H            8.7687     5.7122     3.3621 H            1    LIG   0.0000
  40 H            7.5729     6.8145     3.5089 H            1    LIG   0.0000
  41 H            6.2063     3.9765     4.5985 H            1    LIG   0.0000
  42 H            4.7091     2.5062     3.4445 H            1    LIG   0.0000
  43 H            4.5616     1.9816     0.0061 H            1    LIG   0.0000
  44 H            2.8700     0.1862     0.7038 H            1    LIG   0.0000
  45 H           -0.6500     2.1258     1.0000 H            1    LIG   0.0000
  46 H            2.4182     5.0903     3.7360 H            1    LIG   0.0000
  47 H            3.2469     7.3263     5.1178 H            1    LIG   0.0000
  48 H            5.4026     6.7106     3.1875 H            1    LIG   0.0000
  49 H            5.6194     6.8688     4.7983 H            1    LIG   0.0000
  50 H            4.7398     9.2125     4.6864 H            1    LIG   0.0000
  51 H            4.5230     9.0543     3.0756 H            1    LIG   0.0000
  52 H           -0.6047     4.3735    -0.0221 H            1    LIG   0.0000
  53 H           -1.7237     5.4100    -0.6053 H            1    LIG   0.0000
  54 H           -0.4655     4.9551    -1.5417 H            1    LIG   0.0000
  55 H            2.4484     9.8921     1.3623 H            1    LIG   0.0000
  56 H            2.9180    12.1905     0.8547 H            1    LIG   0.0000
  57 H            1.8775    13.2261    -1.0449 H            1    LIG   0.0000
  58 H            0.3830    11.9304    -2.3980 H            1    LIG   0.0000
  59 H            5.8430     4.2180    -0.1643 H            1    LIG   0.0000
  60 H            7.3955     5.9157    -0.2667 H            1    LIG   0.0000
  61 H            7.3856     6.9460     1.0003 H            1    LIG   0.0000
  62 H            8.5816     5.8439     0.8534 H            1    LIG   0.0000
@<TRIPOS>BOND
   1        1        2 1
   2        2        3 ar
   3        3        4 ar
   4        4        5 ar
   5        5        6 1
   6        6        7 am
   7        7        8 2
   8        7        9 am
   9        9       10 1
  10       10       11 1
  11       10       12 2
  12       12       13 1
  13       13       14 1
  14       14       15 2
  15       14       16 1
  16       16       17 ar
  17       17       18 ar
  18       18       19 1
  19       19       20 1
  20       20       21 1
  21       21       19 1
  22       18       22 ar
  23       22       23 ar
  24       23       24 ar
  25       24       16 ar
  26       24       25 1
  27       25       26 1
  28       25       27 2
  29       27       28 1
  30       28       23 1
  31       28       29 1
  32       29       30 ar
  33       30       31 ar
  34       31       32 ar
  35       32       33 ar
  36       33       34 ar
  37       34       29 ar
  38        5       35 ar
  39       35       36 ar
  40       36        2 ar
  41       36       37 1
  42        1       38 1
  43        1       39 1
  44        1       40 1
  45        3       41 1
  46        4       42 1
  47        6       43 1
  48        9       44 1
  49       12       45 1
  50       17       46 1
  51       19       47 1
  52       20       48 1
  53       20       49 1
  54       21       50 1
  55       21       51 1
  56       26       52 1
  57       26       53 1
  58       26       54 1
  59       30       55 1
  60       31       56 1
  61       32       57 1
  62       33       58 1
  63       35       59 1
  64       37       60 1
  65       37       61 1
  66       37       62 1

@<TRIPOS>MOLECULE

  62   66
SMALL
USER_CHARGES
@<TRIPOS>ATOM
   1 C1           7.8289     5.8613     3.6694 C.3          1    LIG   0.0000
   2 C2           6.8919     4.9478     2.8956 C.ar         1    LIG   0.0000
   3 C3           6.1286     4.0252     3.6027 C.ar         1    LIG   0.0000
   4 C4           5.2579     3.1696     2.9359 C.ar         1    LIG   0.0000
   5 C5           5.1625     3.2513     1.5508 C.ar         1    LIG   0.0000
   6 N6           4.2873     2.3925     0.8755 N.am         1    LIG   0.0000
   7 C7           3.0550     2.1149     1.4058 C.2          1    LIG   0.0000
   8 O8           2.5756     2.8483     2.2257 O.2          1    LIG   0.0000
   9 N9           2.3700     1.0000     1.0000 N.am         1    LIG   0.0000
  10 C10          1.0000     1.0000     1.0000 C.2          1    LIG   0.0000
  11 O11          0.2900    -0.2298     1.0000 O.3          1    LIG  -1.0000
  12 C12          0.3500     2.1258     1.0000 C.2          1    LIG   0.0000
  13 O13          1.0050     3.2603     1.0000 O.3          1    LIG   0.0000
  14 C14          1.2870     3.7487    -0.1824 C.2          1    LIG   0.0000
  15 O15          1.1105     3.0822    -1.1645 O.2          1    LIG   0.0000
  16 C16          1.8121     5.0942    -0.3043 C.ar         1    LIG   0.0000
  17 C17          2.6606     5.3426    -1.3768 C.ar         1    LIG   0.0000
  18 C18          3.1837     6.6219    -1.5246 C.ar         1    LIG   0.0000
  19 C19          4.1075     6.8730    -2.7010 C.3          1    LIG   0.0000
  20 C20          3.5241     7.2618    -4.0235 C.3          1    LIG   0.0000
  21 C21          4.2371     8.2893    -3.1860 C.3          1    LIG   0.0000
  22 N22          2.8562     7.5749    -0.6337 N.ar         1    LIG   0.0000
  23 C23          2.0378     7.3634     0.4131 C.ar         1    LIG   0.0000
  24 C24          1.5007     6.1138     0.5971 C.ar         1    LIG   0.0000
  25 C25          0.7047     6.2194     1.7662 C.2          1    LIG   0.0000
  26 C26         -0.1163     5.1116     2.4068 C.3          1    LIG   0.0000
  27 N27          0.7767     7.4419     2.2378 N.2          1    LIG   0.0000
  28 N28          1.5618     8.1293     1.4399 N.pl3        1    LIG   0.0000
  29 C29          1.8677     9.4818     1.6325 C.ar         1    LIG   0.0000
  30 C30          2.1321    10.2641     0.5130 C.ar         1    LIG   0.0000
  31 C31          2.4350    11.6096     0.6931 C.ar         1    LIG   0.0000
  32 C32          2.4684    12.1489     1.9736 C.ar         1    LIG   0.0000
  33 C33          2.1948    11.3163     3.0531 C.ar         1    LIG   0.0000
  34 N34          1.9052    10.0210     2.8606 N.ar         1    LIG   0.0000
  35 C35          5.9209     4.1697     0.8315 C.ar         1    LIG   0.0000
  36 C36          6.7882     5.0200     1.5093 C.ar         1    LIG   0.0000
  37 C37          7.6078     6.0167     0.7053 C.3          1    LIG   0.0000
  38 H            7.7613     5.6579     4.6461 H            1    LIG   0.0000
  39 H            8.7687     5.7122     3.3621 H            1    LIG   0.0000
  40 H            7.5729     6.8145     3.5089 H            1    LIG   0.0000
  41 H            6.2063     3.9765     4.5985 H            1    LIG   0.0000
  42 H            4.7091     2.5062     3.4445 H            1    LIG   0.0000
  43 H            4.5616     1.9816     0.0061 H            1    LIG   0.0000
  44 H            2.8700     0.1862     0.7038 H            1    LIG   0.0000
  45 H           -0.6500     2.1258     1.0000 H            1    LIG   0.0000
  46 H            2.8894     4.6179    -2.0268 H            1    LIG   0.0000
  47 H            4.9395     6.3192    -2.7329 H            1    LIG   0.0000
  48 H            2.5318     7.3108    -4.1371 H            1    LIG   0.0000
  49 H            3.9406     6.9308    -4.8703 H            1    LIG   0.0000
  50 H            5.1279     8.6402    -3.4748 H            1    LIG   0.0000
  51 H            3.7191     9.0202    -2.7416 H            1    LIG   0.0000
  52 H           -0.0172     4.2719     1.8729 H            1    LIG   0.0000
  53 H            0.2075     4.9536     3.3397 H            1    LIG   0.0000
  54 H           -1.0791     5.3806     2.4293 H            1    LIG   0.0000
  55 H            2.1050     9.8666    -0.4041 H            1    LIG   0.0000
  56 H            2.6286    12.1890    -0.0987 H            1    LIG   0.0000
  57 H            2.6847    13.1148     2.1156 H            1    LIG   0.0000
  58 H            2.2140    11.6868     3.9817 H            1    LIG   0.0000
  59 H            5.8430     4.2180    -0.1643 H            1    LIG   0.0000
  60 H            7.3955     5.9157    -0.2667 H            1    LIG   0.0000
  61 H            7.3856     6.9460     1.0003 H            1    LIG   0.0000
  62 H            8.5816     5.8439     0.8534 H            1    LIG   0.0000
@<TRIPOS>BOND
   1        1        2 1
   2        2        3 ar
   3        3        4 ar
   4        4        5 ar
   5        5        6 1
   6        6        7 am
   7        7        8 2
   8        7        9 am
   9        9       10 1
  10       10       11 1
  11       10       12 2
  12       12       13 1
  13       13       14 1
  14       14       15 2
  15       14       16 1
  16       16       17 ar
  17       17       18 ar
  18       18       19 1
  19       19       20 1
  20       20       21 1
  21       21       19 1
  22       18       22 ar
  23       22       23 ar
  24       23       24 ar
  25       24       16 ar
  26       24       25 1
  27       25       26 1
  28       25       27 2
  29       27       28 1
  30       28       23 1
  31       28       29 1
  32       29       30 ar
  33       30       31 ar
  34       31       32 ar
  35       32       33 ar
  36       33       34 ar
  37       34       29 ar
  38        5       35 ar
  39       35       36 ar
  40       36        2 ar
  41       36       37 1
  42        1       38 1
  43        1       39 1
  44        1       40 1
  45        3       41 1
  46        4       42 1
  47        6       43 1
  48        9       44 1
  49       12       45 1
  50       17       46 1
  51       19       47 1
  52       20       48 1
  53       20       49 1
  54       21       50 1
  55       21       51 1
  56       26       52 1
  57       26       53 1
  58       26       54 1
  59       30       55 1
  60       31       56 1
  61       32       57 1
  62       33       58 1
  63       35       59 1
  64       37       60 1
  65       37       61 1
  66       37       62 1

@<TRIPOS>MOLECULE

  62   66
SMALL
USER_CHARGES
@<TRIPOS>ATOM
   1 C1           7.8289     5.8613     3.6694 C.3          1    LIG   0.0000
   2 C2           6.8919     4.9478     2.8956 C.ar         1    LIG   0.0000
   3 C3           6.1286     4.0252     3.6027 C.ar         1    LIG   0.0000
   4 C4           5.2579     3.1696     2.9359 C.ar         1    LIG   0.0000
   5 C5           5.1625     3.2513     1.5508 C.ar         1    LIG   0.0000
   6 N6           4.2873     2.3925     0.8755 N.am         1    LIG   0.0000
   7 C7           3.0550     2.1149     1.4058 C.2          1    LIG   0.0000
   8 O8           2.5756     2.8483     2.2257 O.2          1    LIG   0.0000
   9 N9           2.3700     1.0000     1.0000 N.am         1    LIG   0.0000
  10 C10          1.0000     1.0000     1.0000 C.2          1    LIG   0.0000
  11 O11          0.2900    -0.2298     1.0000 O.3          1    LIG  -1.0000
  12 C12          0.3500     2.1258     1.0000 C.2          1    LIG   0.0000
  13 O13          1.0050     3.2603     1.0000 O.3          1    LIG   0.0000
  14 C14          0.7750     4.0443    -0.0240 C.2          1    LIG   0.0000
  15 O15          0.3135     3.5913    -1.0348 O.2          1    LIG   0.0000
  16 C16          1.0780     5.4591     0.0640 C.ar         1    LIG   0.0000
  17 C17          0.9828     6.0449     1.3208 C.ar         1    LIG   0.0000
  18 C18          1.2655     7.4004     1.4424 C.ar         1    LIG   0.0000
  19 C19          1.1561     8.0212     2.8219 C.3          1    LIG   0.0000
  20 C20         -0.1295     8.6655     3.2379 C.3          1    LIG   0.0000
  21 C21          0.2659     7.3342     3.8186 C.3          1    LIG   0.0000
  22 N22          1.6208     8.1003     0.3501 N.ar         1    LIG   0.0000
  23 C23          1.7211     7.5600    -0.8780 C.ar         1    LIG   0.0000
  24 C24          1.4490     6.2248    -1.0428 C.ar         1    LIG   0.0000
  25 C25          1.6374     5.9747    -2.4261 C.2          1    LIG   0.0000
  26 C26          1.4671     4.6418    -3.1376 C.3          1    LIG   0.0000
  27 N27          1.9875     7.0860    -3.0299 N.2          1    LIG   0.0000
  28 N28          2.0439     8.0313    -2.1195 N.pl3        1    LIG   0.0000
  29 C29          2.3910     9.3577    -2.4020 C.ar         1    LIG   0.0000
  30 C30          1.4933    10.1343    -3.1274 C.ar         1    LIG   0.0000
  31 C31          1.8275    11.4542    -3.4116 C.ar         1    LIG   0.0000
  32 C32          3.0391    11.9742    -2.9719 C.ar         1    LIG   0.0000
  33 C33          3.8945    11.1486    -2.2508 C.ar         1    LIG   0.0000
  34 N34          3.5559     9.8780    -1.9866 N.ar         1    LIG   0.0000
  35 C35          5.9209     4.1697     0.8315 C.ar         1    LIG   0.0000
  36 C36          6.7882     5.0200     1.5093 C.ar         1    LIG   0.0000
  37 C37          7.6078     6.0167     0.7053 C.3          1    LIG   0.0000
  38 H            7.7613     5.6579     4.6461 H            1    LIG   0.0000
  39 H            8.7687     5.7122     3.3621 H            1    LIG   0.0000
  40 H            7.5729     6.8145     3.5089 H            1    LIG   0.0000
  41 H            6.2063     3.9765     4.5985 H            1    LIG   0.0000
  42 H            4.7091     2.5062     3.4445 H            1    LIG   0.0000
  43 H            4.5616     1.9816     0.0061 H            1    LIG   0.0000
  44 H            2.8700     0.1862     0.7038 H            1    LIG   0.0000
  45 H           -0.6500     2.1258     1.0000 H            1    LIG   0.0000
  46 H            0.7172     5.5039     2.1188 H            1    LIG   0.0000
  47 H            1.9919     8.4308     3.1875 H            1    LIG   0.0000
  48 H           -0.8914     8.7229     2.5929 H            1    LIG   0.0000
  49 H           -0.1154     9.4848     3.8110 H            1    LIG   0.0000
  50 H            0.5442     7.2687     4.7769 H            1    LIG   0.0000
  51 H           -0.2318     6.5068     3.5587 H            1    LIG   0.0000
  52 H            1.1979     3.9425    -2.4754 H            1    LIG   0.0000
  53 H            0.7597     4.7264    -3.8392 H            1    LIG   0.0000
  54 H            2.3319     4.3797    -3.5660 H            1    LIG   0.0000
  55 H            0.6239     9.7508    -3.4388 H            1    LIG   0.0000
  56 H            1.1961    12.0290    -3.9322 H            1    LIG   0.0000
  57 H            3.2902    12.9217    -3.1699 H            1    LIG   0.0000
  58 H            4.7704    11.5055    -1.9261 H            1    LIG   0.0000
  59 H            5.8430     4.2180    -0.1643 H            1    LIG   0.0000
  60 H            7.3955     5.9157    -0.2667 H            1    LIG   0.0000
  61 H            7.3856     6.9460     1.0003 H            1    LIG   0.0000
  62 H            8.5816     5.8439     0.8534 H            1    LIG   0.0000
@<TRIPOS>BOND
   1        1        2 1
   2        2        3 ar
   3        3        4 ar
   4        4        5 ar
   5        5        6 1
   6        6        7 am
   7        7        8 2
   8        7        9 am
   9        9       10 1
  10       10       11 1
  11       10       12 2
  12       12       13 1
  13       13       14 1
  14       14       15 2
  15       14       16 1
  16       16       17 ar
  17       17       18 ar
  18       18       19 1
  19       19       20 1
  20       20       21 1
  21       21       19 1
  22       18       22 ar
  23       22       23 ar
  24       23       24 ar
  25       24       16 ar
  26       24       25 1
  27       25       26 1
  28       25       27 2
  29       27       28 1
  30       28       23 1
  31       28       29 1
  32       29       30 ar
  33       30       31 ar
  34       31       32 ar
  35       32       33 ar
  36       33       34 ar
  37       34       29 ar
  38        5       35 ar
  39       35       36 ar
  40       36        2 ar
  41       36       37 1
  42        1       38 1
  43        1       39 1
  44        1       40 1
  45        3       41 1
  46        4       42 1
  47        6       43 1
  48        9       44 1
  49       12       45 1
  50       17       46 1
  51       19       47 1
  52       20       48 1
  53       20       49 1
  54       21       50 1
  55       21       51 1
  56       26       52 1
  57       26       53 1
  58       26       54 1
  59       30       55 1
  60       31       56 1
  61       32       57 1
  62       33       58 1
  63       35       59 1
  64       37       60 1
  65       37       61 1
  66       37       62 1

@<TRIPOS>MOLECULE

  62   66
SMALL
USER_CHARGES
@<TRIPOS>ATOM
   1 C1           7.8289     5.8613     3.6694 C.3          1    LIG   0.0000
   2 C2           6.8919     4.9478     2.8956 C.ar         1    LIG   0.0000
   3 C3           6.1286     4.0252     3.6027 C.ar         1    LIG   0.0000
   4 C4           5.2579     3.1696     2.9359 C.ar         1    LIG   0.0000
   5 C5           5.1625     3.2513     1.5508 C.ar         1    LIG   0.0000
   6 N6           4.2873     2.3925     0.8755 N.am         1    LIG   0.0000
   7 C7           3.0550     2.1149     1.4058 C.2          1    LIG   0.0000
   8 O8           2.5756     2.8483     2.2257 O.2          1    LIG   0.0000
   9 N9           2.3700     1.0000     1.0000 N.am         1    LIG   0.0000
  10 C10          1.0000     1.0000     1.0000 C.2          1    LIG   0.0000
  11 O11          0.2900    -0.2298     1.0000 O.3          1    LIG  -1.0000
  12 C12          0.3500     2.1258     1.0000 C.2          1    LIG   0.0000
  13 O13          1.0050     3.2603     1.0000 O.3          1    LIG   0.0000
  14 C14          1.7990     3.4531    -0.0240 C.2          1    LIG   0.0000
  15 O15          1.6374     2.8269    -1.0348 O.2          1    LIG   0.0000
  16 C16          2.8727     4.4229     0.0640 C.ar         1    LIG   0.0000
  17 C17          2.9995     5.1126     1.2640 C.ar         1    LIG   0.0000
  18 C18          4.0178     6.0511     1.3838 C.ar         1    LIG   0.0000
  19 C19          4.1398     6.7931     2.7009 C.3          1    LIG   0.0000
  20 C20          2.9039     7.1057     3.4855 C.3          1    LIG   0.0000
  21 C21          3.8389     6.0240     3.9562 C.3          1    LIG   0.0000
  22 N22          4.8448     6.2627     0.3443 N.ar         1    LIG   0.0000
  23 C23          4.7459     5.6102    -0.8283 C.ar         1    LIG   0.0000
  24 C24          3.7531     4.6762    -0.9894 C.ar         1    LIG   0.0000
  25 C25          3.9153     4.1850    -2.3100 C.2          1    LIG   0.0000
  26 C26          3.0686     3.1221    -2.9920 C.3          1    LIG   0.0000
  27 N27          4.9263     4.7935    -2.8842 N.2          1    LIG   0.0000
  28 N28          5.4282     5.6379    -2.0120 N.pl3        1    LIG   0.0000
  29 C29          6.5276     6.4627    -2.2781 C.ar         1    LIG   0.0000
  30 C30          6.6038     7.6904    -1.6283 C.ar         1    LIG   0.0000
  31 C31          7.6932     8.5165    -1.8838 C.ar         1    LIG   0.0000
  32 C32          8.6800     8.1096    -2.7739 C.ar         1    LIG   0.0000
  33 C33          8.5481     6.8711    -3.3922 C.ar         1    LIG   0.0000
  34 N34          7.4905     6.0879    -3.1341 N.ar         1    LIG   0.0000
  35 C35          5.9209     4.1697     0.8315 C.ar         1    LIG   0.0000
  36 C36          6.7882     5.0200     1.5093 C.ar         1    LIG   0.0000
  37 C37          7.6078     6.0167     0.7053 C.3          1    LIG   0.0000
  38 H            7.7613     5.6579     4.6461 H            1    LIG   0.0000
  39 H            8.7687     5.7122     3.3621 H            1    LIG   0.0000
  40 H            7.5729     6.8145     3.5089 H            1    LIG   0.0000
  41 H            6.2063     3.9765     4.5985 H            1    LIG   0.0000
  42 H            4.7091     2.5062     3.4445 H            1    LIG   0.0000
  43 H            4.5616     1.9816     0.0061 H            1    LIG   0.0000
  44 H            2.8700     0.1862     0.7038 H            1    LIG   0.0000
  45 H           -0.6500     2.1258     1.0000 H            1    LIG   0.0000
  46 H            2.3728     4.9377     2.0234 H            1    LIG   0.0000
  47 H            4.8805     7.4622     2.7618 H            1    LIG   0.0000
  48 H            2.0051     6.8649     3.1192 H            1    LIG   0.0000
  49 H            2.8378     7.9649     3.9927 H            1    LIG   0.0000
  50 H            4.3953     6.1645     4.7751 H            1    LIG   0.0000
  51 H            3.5626     5.0645     3.9015 H            1    LIG   0.0000
  52 H            2.3605     2.8046    -2.3612 H            1    LIG   0.0000
  53 H            2.6390     3.5105    -3.8072 H            1    LIG   0.0000
  54 H            3.6494     2.3520    -3.2560 H            1    LIG   0.0000
  55 H            5.8887     7.9736    -0.9893 H            1    LIG   0.0000
  56 H            7.7663     9.4032    -1.4273 H            1    LIG   0.0000
  57 H            9.4680     8.6948    -2.9654 H            1    LIG   0.0000
  58 H            9.2485     6.5616    -4.0353 H            1    LIG   0.0000
  59 H            5.8430     4.2180    -0.1643 H            1    LIG   0.0000
  60 H            7.3955     5.9157    -0.2667 H            1    LIG   0.0000
  61 H            7.3856     6.9460     1.0003 H            1    LIG   0.0000
  62 H            8.5816     5.8439     0.8534 H            1    LIG   0.0000
@<TRIPOS>BOND
   1        1        2 1
   2        2        3 ar
   3        3        4 ar
   4        4        5 ar
   5        5        6 1
   6        6        7 am
   7        7        8 2
   8        7        9 am
   9        9       10 1
  10       10       11 1
  11       10       12 2
  12       12       13 1
  13       13       14 1
  14       14       15 2
  15       14       16 1
  16       16       17 ar
  17       17       18 ar
  18       18       19 1
  19       19       20 1
  20       20       21 1
  21       21       19 1
  22       18       22 ar
  23       22       23 ar
  24       23       24 ar
  25       24       16 ar
  26       24       25 1
  27       25       26 1
  28       25       27 2
  29       27       28 1
  30       28       23 1
  31       28       29 1
  32       29       30 ar
  33       30       31 ar
  34       31       32 ar
  35       32       33 ar
  36       33       34 ar
  37       34       29 ar
  38        5       35 ar
  39       35       36 ar
  40       36        2 ar
  41       36       37 1
  42        1       38 1
  43        1       39 1
  44        1       40 1
  45        3       41 1
  46        4       42 1
  47        6       43 1
  48        9       44 1
  49       12       45 1
  50       17       46 1
  51       19       47 1
  52       20       48 1
  53       20       49 1
  54       21       50 1
  55       21       51 1
  56       26       52 1
  57       26       53 1
  58       26       54 1
  59       30       55 1
  60       31       56 1
  61       32       57 1
  62       33       58 1
  63       35       59 1
  64       37       60 1
  65       37       61 1
  66       37       62 1

@<TRIPOS>MOLECULE

  62   66
SMALL
USER_CHARGES
@<TRIPOS>ATOM
   1 C1           7.8289     5.8613     3.6694 C.3          1    LIG   0.0000
   2 C2           6.8919     4.9478     2.8956 C.ar         1    LIG   0.0000
   3 C3           6.1286     4.0252     3.6027 C.ar         1    LIG   0.0000
   4 C4           5.2579     3.1696     2.9359 C.ar         1    LIG   0.0000
   5 C5           5.1625     3.2513     1.5508 C.ar         1    LIG   0.0000
   6 N6           4.2873     2.3925     0.8755 N.am         1    LIG   0.0000
   7 C7           3.0550     2.1149     1.4058 C.2          1    LIG   0.0000
   8 O8           2.5756     2.8483     2.2257 O.2          1    LIG   0.0000
   9 N9           2.3700     1.0000     1.0000 N.am         1    LIG   0.0000
  10 C10          1.0000     1.0000     1.0000 C.2          1    LIG   0.0000
  11 O11          0.2900    -0.2298     1.0000 O.3          1    LIG  -1.0000
  12 C12          0.3500     2.1258     1.0000 C.2          1    LIG   0.0000
  13 O13          1.0050     3.2603     1.0000 O.3          1    LIG   0.0000
  14 C14          0.5629     4.1668     0.1639 C.2          1    LIG   0.0000
  15 O15         -0.1201     3.8416    -0.7676 O.2          1    LIG   0.0000
  16 C16          0.8988     5.5625     0.3641 C.ar         1    LIG   0.0000
  17 C17          2.1139     5.8339     0.9818 C.ar         1    LIG   0.0000
  18 C18          2.4683     7.1617     1.1907 C.ar         1    LIG   0.0000
  19 C19          3.7980     7.4373     1.8662 C.3          1    LIG   0.0000
  20 C20          3.8291     8.2483     3.1240 C.3          1    LIG   0.0000
  21 C21          4.0556     6.7614     3.1832 C.3          1    LIG   0.0000
  22 N22          1.6329     8.1375     0.7919 N.ar         1    LIG   0.0000
  23 C23          0.4515     7.9046     0.1917 C.ar         1    LIG   0.0000
  24 C24          0.0621     6.6076    -0.0321 C.ar         1    LIG   0.0000
  25 C25         -1.2050     6.7030    -0.6622 C.2          1    LIG   0.0000
  26 C26         -2.0751     5.5463    -1.1276 C.3          1    LIG   0.0000
  27 N27         -1.5376     7.9659    -0.7911 N.2          1    LIG   0.0000
  28 N28         -0.5597     8.6867    -0.2914 N.pl3        1    LIG   0.0000
  29 C29         -0.5676    10.0862    -0.2610 C.ar         1    LIG   0.0000
  30 C30         -0.9678    10.7686    -1.4053 C.ar         1    LIG   0.0000
  31 C31         -0.9814    12.1593    -1.3850 C.ar         1    LIG   0.0000
  32 C32         -0.6002    12.8410    -0.2354 C.ar         1    LIG   0.0000
  33 C33         -0.2105    12.1032     0.8769 C.ar         1    LIG   0.0000
  34 N34         -0.2030    10.7626     0.8389 N.ar         1    LIG   0.0000
  35 C35          5.9209     4.1697     0.8315 C.ar         1    LIG   0.0000
  36 C36          6.7882     5.0200     1.5093 C.ar         1    LIG   0.0000
  37 C37          7.6078     6.0167     0.7053 C.3          1    LIG   0.0000
  38 H            7.7613     5.6579     4.6461 H            1    LIG   0.0000
  39 H            8.7687     5.7122     3.3621 H            1    LIG   0.0000
  40 H            7.5729     6.8145     3.5089 H            1    LIG   0.0000
  41 H            6.2063     3.9765     4.5985 H            1    LIG   0.0000
  42 H            4.7091     2.5062     3.4445 H            1    LIG   0.0000
  43 H            4.5616     1.9816     0.0061 H            1    LIG   0.0000
  44 H            2.8700     0.1862     0.7038 H            1    LIG   0.0000
  45 H           -0.6500     2.1258     1.0000 H            1    LIG   0.0000
  46 H            2.7189     5.0914     1.2693 H            1    LIG   0.0000
  47 H            4.5874     7.5351     1.2601 H            1    LIG   0.0000
  48 H            2.9838     8.6400     3.4872 H            1    LIG   0.0000
  49 H            4.5880     8.8767     3.2949 H            1    LIG   0.0000
  50 H            4.9649     6.4013     3.3919 H            1    LIG   0.0000
  51 H            3.3607     6.1646     3.5842 H            1    LIG   0.0000
  52 H           -1.6163     4.6813    -0.9245 H            1    LIG   0.0000
  53 H           -2.9538     5.5774    -0.6512 H            1    LIG   0.0000
  54 H           -2.2276     5.6194    -2.1132 H            1    LIG   0.0000
  55 H           -1.2407    10.2686    -2.2272 H            1    LIG   0.0000
  56 H           -1.2653    12.6685    -2.1974 H            1    LIG   0.0000
  57 H           -0.6062    13.8407    -0.2087 H            1    LIG   0.0000
  58 H            0.0668    12.5766     1.7129 H            1    LIG   0.0000
  59 H            5.8430     4.2180    -0.1643 H            1    LIG   0.0000
  60 H            7.3955     5.9157    -0.2667 H            1    LIG   0.0000
  61 H            7.3856     6.9460     1.0003 H            1    LIG   0.0000
  62 H            8.5816     5.8439     0.8534 H            1    LIG   0.0000
@<TRIPOS>BOND
   1        1        2 1
   2        2        3 ar
   3        3        4 ar
   4        4        5 ar
   5        5        6 1
   6        6        7 am
   7        7        8 2
   8        7        9 am
   9        9       10 1
  10       10       11 1
  11       10       12 2
  12       12       13 1
  13       13       14 1
  14       14       15 2
  15       14       16 1
  16       16       17 ar
  17       17       18 ar
  18       18       19 1
  19       19       20 1
  20       20       21 1
  21       21       19 1
  22       18       22 ar
  23       22       23 ar
  24       23       24 ar
  25       24       16 ar
  26       24       25 1
  27       25       26 1
  28       25       27 2
  29       27       28 1
  30       28       23 1
  31       28       29 1
  32       29       30 ar
  33       30       31 ar
  34       31       32 ar
  35       32       33 ar
  36       33       34 ar
  37       34       29 ar
  38        5       35 ar
  39       35       36 ar
  40       36        2 ar
  41       36       37 1
  42        1       38 1
  43        1       39 1
  44        1       40 1
  45        3       41 1
  46        4       42 1
  47        6       43 1
  48        9       44 1
  49       12       45 1
  50       17       46 1
  51       19       47 1
  52       20       48 1
  53       20       49 1
  54       21       50 1
  55       21       51 1
  56       26       52 1
  57       26       53 1
  58       26       54 1
  59       30       55 1
  60       31       56 1
  61       32       57 1
  62       33       58 1
  63       35       59 1
  64       37       60 1
  65       37       61 1
  66       37       62 1

