@<TRIPOS>MOLECULE
*****
 62 66 0 0 0
SMALL
USER_CHARGES

@<TRIPOS>ATOM
      1 C1          7.8289    5.8613    3.6694 C.3     1  LIG1        0.0000
      2 C2          6.8919    4.9478    2.8956 C.3     1  LIG1        0.0000
      3 C3          6.1286    4.0252    3.6027 C.3     1  LIG1        0.0000
      4 C4          5.2579    3.1696    2.9359 C.3     1  LIG1        0.0000
      5 C5          5.1625    3.2513    1.5508 C.3     1  LIG1        0.0000
      6 N6          4.2873    2.3925    0.8755 N.am    1  LIG1        0.0000
      7 C7          3.0550    2.1149    1.4058 C.2     1  LIG1        0.0000
      8 O8          2.5756    2.8483    2.2257 O.2     1  LIG1        0.0000
      9 N9          2.3700    1.0000    1.0000 N.am    1  LIG1        0.0000
     10 C10         1.0000    1.0000    1.0000 C.2     1  LIG1        0.0000
     11 O11         0.2900   -0.2298    1.0000 O.2     1  LIG1       -1.0000
     12 C12         0.3500    2.1258    1.0000 C.2     1  LIG1        0.0000
     13 O13         1.0050    3.2603    1.0000 O.3     1  LIG1        0.0000
     14 C14         1.7990    3.4531   -0.0240 C.2     1  LIG1        0.0000
     15 O15         1.6374    2.8269   -1.0348 O.2     1  LIG1        0.0000
     16 C16         2.8727    4.4229    0.0640 C.3     1  LIG1        0.0000
     17 C17         2.9995    5.1126    1.2640 C.3     1  LIG1        0.0000
     18 C18         4.0178    6.0511    1.3838 C.3     1  LIG1        0.0000
     19 C19         4.1398    6.7931    2.7009 C.3     1  LIG1        0.0000
     20 C20         2.9039    7.1057    3.4855 C.3     1  LIG1        0.0000
     21 C21         3.8389    6.0240    3.9562 C.3     1  LIG1        0.0000
     22 N22         4.8448    6.2627    0.3443 N.pl3   1  LIG1        0.0000
     23 C23         4.7459    5.6102   -0.8283 C.3     1  LIG1        0.0000
     24 C24         3.7531    4.6762   -0.9894 C.3     1  LIG1        0.0000
     25 C25         3.9153    4.1850   -2.3100 C.2     1  LIG1        0.0000
     26 C26         3.0686    3.1221   -2.9920 C.3     1  LIG1        0.0000
     27 N27         4.9263    4.7935   -2.8842 N.2     1  LIG1        0.0000
     28 N28         5.4282    5.6379   -2.0120 N.pl3   1  LIG1        0.0000
     29 C29         6.5276    6.4627   -2.2781 C.3     1  LIG1        0.0000
     30 C30         6.6038    7.6904   -1.6283 C.3     1  LIG1        0.0000
     31 C31         7.6932    8.5165   -1.8838 C.3     1  LIG1        0.0000
     32 C32         8.6800    8.1096   -2.7739 C.3     1  LIG1        0.0000
     33 C33         8.5481    6.8711   -3.3922 C.3     1  LIG1        0.0000
     34 N34         7.4905    6.0879   -3.1341 N.pl3   1  LIG1        0.0000
     35 C35         5.9209    4.1697    0.8315 C.3     1  LIG1        0.0000
     36 C36         6.7882    5.0200    1.5093 C.3     1  LIG1        0.0000
     37 C37         7.6078    6.0167    0.7053 C.3     1  LIG1        0.0000
     38 H           7.7613    5.6579    4.6461 H       1  LIG1        0.0000
     39 H           8.7687    5.7122    3.3621 H       1  LIG1        0.0000
     40 H           7.5729    6.8145    3.5089 H       1  LIG1        0.0000
     41 H           6.2063    3.9765    4.5985 H       1  LIG1        0.0000
     42 H           4.7091    2.5062    3.4445 H       1  LIG1        0.0000
     43 H           4.5616    1.9816    0.0061 H       1  LIG1        0.0000
     44 H           2.8700    0.1862    0.7038 H       1  LIG1        0.0000
     45 H          -0.6500    2.1258    1.0000 H       1  LIG1        0.0000
     46 H           2.3728    4.9377    2.0234 H       1  LIG1        0.0000
     47 H           4.8805    7.4622    2.7618 H       1  LIG1        0.0000
     48 H           2.0051    6.8649    3.1192 H       1  LIG1        0.0000
     49 H           2.8378    7.9649    3.9927 H       1  LIG1        0.0000
     50 H           4.3953    6.1645    4.7751 H       1  LIG1        0.0000
     51 H           3.5626    5.0645    3.9015 H       1  LIG1        0.0000
     52 H           2.3605    2.8046   -2.3612 H       1  LIG1        0.0000
     53 H           2.6390    3.5105   -3.8072 H       1  LIG1        0.0000
     54 H           3.6494    2.3520   -3.2560 H       1  LIG1        0.0000
     55 H           5.8887    7.9736   -0.9893 H       1  LIG1        0.0000
     56 H           7.7663    9.4032   -1.4273 H       1  LIG1        0.0000
     57 H           9.4680    8.6948   -2.9654 H       1  LIG1        0.0000
     58 H           9.2485    6.5616   -4.0353 H       1  LIG1        0.0000
     59 H           5.8430    4.2180   -0.1643 H       1  LIG1        0.0000
     60 H           7.3955    5.9157   -0.2667 H       1  LIG1        0.0000
     61 H           7.3856    6.9460    1.0003 H       1  LIG1        0.0000
     62 H           8.5816    5.8439    0.8534 H       1  LIG1        0.0000
@<TRIPOS>UNITY_ATOM_ATTR
11 1
charge -1
@<TRIPOS>BOND
     1     1     2    1
     2     2     3   ar
     3     3     4   ar
     4     4     5   ar
     5     5     6    1
     6     6     7   am
     7     7     8    2
     8     7     9   am
     9     9    10    1
    10    10    11    1
    11    10    12    2
    12    12    13    1
    13    13    14    1
    14    14    15    2
    15    14    16    1
    16    16    17   ar
    17    17    18   ar
    18    18    19    1
    19    19    20    1
    20    20    21    1
    21    21    19    1
    22    18    22   ar
    23    22    23   ar
    24    23    24   ar
    25    24    16   ar
    26    24    25    1
    27    25    26    1
    28    25    27    2
    29    27    28    1
    30    28    23    1
    31    28    29    1
    32    29    30   ar
    33    30    31   ar
    34    31    32   ar
    35    32    33   ar
    36    33    34   ar
    37    34    29   ar
    38     5    35   ar
    39    35    36   ar
    40    36     2   ar
    41    36    37    1
    42     1    38    1
    43     1    39    1
    44     1    40    1
    45     3    41    1
    46     4    42    1
    47     6    43    1
    48     9    44    1
    49    12    45    1
    50    17    46    1
    51    19    47    1
    52    20    48    1
    53    20    49    1
    54    21    50    1
    55    21    51    1
    56    26    52    1
    57    26    53    1
    58    26    54    1
    59    30    55    1
    60    31    56    1
    61    32    57    1
    62    33    58    1
    63    35    59    1
    64    37    60    1
    65    37    61    1
    66    37    62    1
