@<TRIPOS>MOLECULE
*****
 62 66 0 0 0
SMALL
USER_CHARGES

@<TRIPOS>ATOM
      1 C1          7.1500    7.0314    2.5083 C.3     1  LIG1        0.0000
      2 C2          6.3760    5.7876    2.1021 C.3     1  LIG1        0.0000
      3 C3          6.3802    5.4093    0.7640 C.3     1  LIG1        0.0000
      4 C4          5.6858    4.2783    0.3473 C.3     1  LIG1        0.0000
      5 C5          4.9872    3.5316    1.2901 C.3     1  LIG1        0.0000
      6 N6          4.2873    2.3925    0.8755 N.am    1  LIG1        0.0000
      7 C7          3.0550    2.1149    1.4058 C.2     1  LIG1        0.0000
      8 O8          2.5756    2.8483    2.2257 O.2     1  LIG1        0.0000
      9 N9          2.3700    1.0000    1.0000 N.am    1  LIG1        0.0000
     10 C10         1.0000    1.0000    1.0000 C.2     1  LIG1        0.0000
     11 O11         0.2900   -0.2298    1.0000 O.2     1  LIG1       -1.0000
     12 C12         0.3500    2.1258    1.0000 C.2     1  LIG1        0.0000
     13 O13         1.0050    3.2603    1.0000 O.3     1  LIG1        0.0000
     14 C14         0.7750    4.0443   -0.0240 C.2     1  LIG1        0.0000
     15 O15         0.0069    3.7029   -0.8804 O.2     1  LIG1        0.0000
     16 C16         1.4483    5.3242   -0.1225 C.3     1  LIG1        0.0000
     17 C17         1.2253    6.2320    0.9061 C.3     1  LIG1        0.0000
     18 C18         1.8543    7.4701    0.8442 C.3     1  LIG1        0.0000
     19 C19         1.5984    8.4468    1.9759 C.3     1  LIG1        0.0000
     20 C20         1.7092    9.9170    1.7169 C.3     1  LIG1        0.0000
     21 C21         0.3544    9.2857    1.8949 C.3     1  LIG1        0.0000
     22 N22         2.6543    7.7515   -0.1998 N.pl3   1  LIG1        0.0000
     23 C23         2.8884    6.8929   -1.2088 C.3     1  LIG1        0.0000
     24 C24         2.2857    5.6598   -1.1878 C.3     1  LIG1        0.0000
     25 C25         2.7241    5.0113   -2.3705 C.2     1  LIG1        0.0000
     26 C26         2.3496    3.6105   -2.8280 C.3     1  LIG1        0.0000
     27 N27         3.5207    5.8105   -3.0405 N.2     1  LIG1        0.0000
     28 N28         3.6278    6.9275   -2.3576 N.pl3   1  LIG1        0.0000
     29 C29         4.4064    8.0152   -2.7706 C.3     1  LIG1        0.0000
     30 C30         4.4435    9.1454   -1.9604 C.3     1  LIG1        0.0000
     31 C31         5.2158   10.2307   -2.3605 C.3     1  LIG1        0.0000
     32 C32         5.9323   10.1727   -3.5500 C.3     1  LIG1        0.0000
     33 C33         5.8554    9.0153   -4.3168 C.3     1  LIG1        0.0000
     34 N34         5.1051    7.9786   -3.9156 N.pl3   1  LIG1        0.0000
     35 C35         4.9748    3.8995    2.6319 C.3     1  LIG1        0.0000
     36 C36         5.6728    5.0326    3.0366 C.3     1  LIG1        0.0000
     37 C37         5.6471    5.4177    4.5072 C.3     1  LIG1        0.0000
     38 H           7.5845    7.4319    1.7015 H       1  LIG1        0.0000
     39 H           6.5231    7.6965    2.9140 H       1  LIG1        0.0000
     40 H           7.8517    6.7840    3.1764 H       1  LIG1        0.0000
     41 H           6.8864    5.9546    0.0959 H       1  LIG1        0.0000
     42 H           5.6889    4.0064   -0.6150 H       1  LIG1        0.0000
     43 H           4.6869    1.7813    0.1923 H       1  LIG1        0.0000
     44 H           2.8700    0.1862    0.7038 H       1  LIG1        0.0000
     45 H          -0.6500    2.1258    1.0000 H       1  LIG1        0.0000
     46 H           0.6265    6.0000    1.6726 H       1  LIG1        0.0000
     47 H           1.8634    8.1400    2.8901 H       1  LIG1        0.0000
     48 H           1.9930   10.2459    0.8162 H       1  LIG1        0.0000
     49 H           2.0751   10.5228    2.4234 H       1  LIG1        0.0000
     50 H          -0.1796    9.4704    2.7200 H       1  LIG1        0.0000
     51 H          -0.2617    9.1934    1.1127 H       1  LIG1        0.0000
     52 H           1.7342    3.1946   -2.1585 H       1  LIG1        0.0000
     53 H           1.8917    3.6610   -3.7156 H       1  LIG1        0.0000
     54 H           3.1768    3.0546   -2.9109 H       1  LIG1        0.0000
     55 H           3.9246    9.1769   -1.1062 H       1  LIG1        0.0000
     56 H           5.2554   11.0528   -1.7925 H       1  LIG1        0.0000
     57 H           6.4912   10.9466   -3.8479 H       1  LIG1        0.0000
     58 H           6.3644    8.9553   -5.1755 H       1  LIG1        0.0000
     59 H           4.4683    3.3540    3.2997 H       1  LIG1        0.0000
     60 H           5.0934    4.7576    5.0150 H       1  LIG1        0.0000
     61 H           6.5797    5.4180    4.8681 H       1  LIG1        0.0000
     62 H           5.2512    6.3306    4.6058 H       1  LIG1        0.0000
@<TRIPOS>UNITY_ATOM_ATTR
11 1
charge -1
@<TRIPOS>BOND
     1     1     2    1
     2     2     3   ar
     3     3     4   ar
     4     4     5   ar
     5     5     6    1
     6     6     7   am
     7     7     8    2
     8     7     9   am
     9     9    10    1
    10    10    11    1
    11    10    12    2
    12    12    13    1
    13    13    14    1
    14    14    15    2
    15    14    16    1
    16    16    17   ar
    17    17    18   ar
    18    18    19    1
    19    19    20    1
    20    20    21    1
    21    21    19    1
    22    18    22   ar
    23    22    23   ar
    24    23    24   ar
    25    24    16   ar
    26    24    25    1
    27    25    26    1
    28    25    27    2
    29    27    28    1
    30    28    23    1
    31    28    29    1
    32    29    30   ar
    33    30    31   ar
    34    31    32   ar
    35    32    33   ar
    36    33    34   ar
    37    34    29   ar
    38     5    35   ar
    39    35    36   ar
    40    36     2   ar
    41    36    37    1
    42     1    38    1
    43     1    39    1
    44     1    40    1
    45     3    41    1
    46     4    42    1
    47     6    43    1
    48     9    44    1
    49    12    45    1
    50    17    46    1
    51    19    47    1
    52    20    48    1
    53    20    49    1
    54    21    50    1
    55    21    51    1
    56    26    52    1
    57    26    53    1
    58    26    54    1
    59    30    55    1
    60    31    56    1
    61    32    57    1
    62    33    58    1
    63    35    59    1
    64    37    60    1
    65    37    61    1
    66    37    62    1
