@<TRIPOS>MOLECULE
*****
 62 66 0 0 0
SMALL
USER_CHARGES

@<TRIPOS>ATOM
      1 C1          7.0908    7.0556    2.5418 C.3     1  LIG1        0.0000
      2 C2          6.3659    5.7920    2.1072 C.3     1  LIG1        0.0000
      3 C3          5.1144    5.9142    1.5133 C.3     1  LIG1        0.0000
      4 C4          4.4151    4.7851    1.1001 C.3     1  LIG1        0.0000
      5 C5          4.9872    3.5316    1.2901 C.3     1  LIG1        0.0000
      6 N6          4.2873    2.3925    0.8755 N.am    1  LIG1        0.0000
      7 C7          3.0550    2.1149    1.4058 C.2     1  LIG1        0.0000
      8 O8          2.5756    2.8483    2.2257 O.2     1  LIG1        0.0000
      9 N9          2.3700    1.0000    1.0000 N.am    1  LIG1        0.0000
     10 C10         1.0000    1.0000    1.0000 C.2     1  LIG1        0.0000
     11 O11         0.2900   -0.2298    1.0000 O.2     1  LIG1       -1.0000
     12 C12         0.3500    2.1258    1.0000 C.2     1  LIG1        0.0000
     13 O13         1.0050    3.2603    1.0000 O.3     1  LIG1        0.0000
     14 C14         0.4002    4.2607    0.4088 C.2     1  LIG1        0.0000
     15 O15        -0.7473    4.1548    0.0740 O.2     1  LIG1        0.0000
     16 C16         1.1170    5.4955    0.1591 C.3     1  LIG1        0.0000
     17 C17         2.2497    5.4133   -0.6423 C.3     1  LIG1        0.0000
     18 C18         2.9626    6.5779   -0.9024 C.3     1  LIG1        0.0000
     19 C19         4.1954    6.4676   -1.7788 C.3     1  LIG1        0.0000
     20 C20         5.0255    5.2230   -1.7262 C.3     1  LIG1        0.0000
     21 C21         4.1461    5.4895   -2.9184 C.3     1  LIG1        0.0000
     22 N22         2.5393    7.7412   -0.3763 N.pl3   1  LIG1        0.0000
     23 C23         1.4473    7.8507    0.4021 C.3     1  LIG1        0.0000
     24 C24         0.7153    6.7246    0.6853 C.3     1  LIG1        0.0000
     25 C25        -0.3452    7.1693    1.5155 C.2     1  LIG1        0.0000
     26 C26        -1.4519    6.3123    2.1092 C.3     1  LIG1        0.0000
     27 N27        -0.2375    8.4625    1.7110 N.2     1  LIG1        0.0000
     28 N28         0.8202    8.8767    1.0514 N.pl3   1  LIG1        0.0000
     29 C29         1.2440   10.2108    1.0281 C.3     1  LIG1        0.0000
     30 C30         2.5988   10.4757    1.2004 C.3     1  LIG1        0.0000
     31 C31         3.0307   11.7976    1.1767 C.3     1  LIG1        0.0000
     32 C32         2.1144   12.8244    0.9828 C.3     1  LIG1        0.0000
     33 C33         0.7735   12.4964    0.8161 C.3     1  LIG1        0.0000
     34 N34         0.3750   11.2161    0.8425 N.pl3   1  LIG1        0.0000
     35 C35         6.2384    3.3956    1.8833 C.3     1  LIG1        0.0000
     36 C36         6.9282    4.5321    2.2925 C.3     1  LIG1        0.0000
     37 C37         8.2941    4.3623    2.9383 C.3     1  LIG1        0.0000
     38 H           6.5285    7.8537    2.3251 H       1  LIG1        0.0000
     39 H           7.2569    7.0224    3.5273 H       1  LIG1        0.0000
     40 H           7.9639    7.1219    2.0587 H       1  LIG1        0.0000
     41 H           4.7140    6.8211    1.3823 H       1  LIG1        0.0000
     42 H           3.5152    4.8731    0.6731 H       1  LIG1        0.0000
     43 H           4.6869    1.7813    0.1923 H       1  LIG1        0.0000
     44 H           2.8700    0.1862    0.7038 H       1  LIG1        0.0000
     45 H          -0.6500    2.1258    1.0000 H       1  LIG1        0.0000
     46 H           2.5448    4.5369   -1.0228 H       1  LIG1        0.0000
     47 H           4.6901    7.3193   -1.9513 H       1  LIG1        0.0000
     48 H           4.7906    4.4923   -1.0852 H       1  LIG1        0.0000
     49 H           6.0198    5.2813   -1.8155 H       1  LIG1        0.0000
     50 H           4.5553    5.7262   -3.7996 H       1  LIG1        0.0000
     51 H           3.3262    4.9373   -3.0693 H       1  LIG1        0.0000
     52 H          -1.3274    5.3622    1.8233 H       1  LIG1        0.0000
     53 H          -1.4172    6.3675    3.1070 H       1  LIG1        0.0000
     54 H          -2.3389    6.6437    1.7876 H       1  LIG1        0.0000
     55 H           3.2500    9.7295    1.3387 H       1  LIG1        0.0000
     56 H           4.0003   12.0091    1.2991 H       1  LIG1        0.0000
     57 H           2.4130   13.7786    0.9636 H       1  LIG1        0.0000
     58 H           0.0999   13.2220    0.6752 H       1  LIG1        0.0000
     59 H           6.6384    2.4885    2.0143 H       1  LIG1        0.0000
     60 H           8.5233    3.3900    2.9828 H       1  LIG1        0.0000
     61 H           8.9821    4.8424    2.3941 H       1  LIG1        0.0000
     62 H           8.2753    4.7430    3.8628 H       1  LIG1        0.0000
@<TRIPOS>UNITY_ATOM_ATTR
11 1
charge -1
@<TRIPOS>BOND
     1     1     2    1
     2     2     3   ar
     3     3     4   ar
     4     4     5   ar
     5     5     6    1
     6     6     7   am
     7     7     8    2
     8     7     9   am
     9     9    10    1
    10    10    11    1
    11    10    12    2
    12    12    13    1
    13    13    14    1
    14    14    15    2
    15    14    16    1
    16    16    17   ar
    17    17    18   ar
    18    18    19    1
    19    19    20    1
    20    20    21    1
    21    21    19    1
    22    18    22   ar
    23    22    23   ar
    24    23    24   ar
    25    24    16   ar
    26    24    25    1
    27    25    26    1
    28    25    27    2
    29    27    28    1
    30    28    23    1
    31    28    29    1
    32    29    30   ar
    33    30    31   ar
    34    31    32   ar
    35    32    33   ar
    36    33    34   ar
    37    34    29   ar
    38     5    35   ar
    39    35    36   ar
    40    36     2   ar
    41    36    37    1
    42     1    38    1
    43     1    39    1
    44     1    40    1
    45     3    41    1
    46     4    42    1
    47     6    43    1
    48     9    44    1
    49    12    45    1
    50    17    46    1
    51    19    47    1
    52    20    48    1
    53    20    49    1
    54    21    50    1
    55    21    51    1
    56    26    52    1
    57    26    53    1
    58    26    54    1
    59    30    55    1
    60    31    56    1
    61    32    57    1
    62    33    58    1
    63    35    59    1
    64    37    60    1
    65    37    61    1
    66    37    62    1
