@<TRIPOS>MOLECULE
*****
 62 66 0 0 0
SMALL
USER_CHARGES

@<TRIPOS>ATOM
      1 C1          7.1335    7.0417    2.5080 C.3     1  LIG1        0.0000
      2 C2          6.3733    5.7894    2.1019 C.3     1  LIG1        0.0000
      3 C3          6.0219    5.6287    0.7661 C.3     1  LIG1        0.0000
      4 C4          5.3261    4.4986    0.3495 C.3     1  LIG1        0.0000
      5 C5          4.9872    3.5316    1.2901 C.3     1  LIG1        0.0000
      6 N6          4.2873    2.3925    0.8755 N.am    1  LIG1        0.0000
      7 C7          3.0550    2.1149    1.4058 C.2     1  LIG1        0.0000
      8 O8          2.5756    2.8483    2.2257 O.2     1  LIG1        0.0000
      9 N9          2.3700    1.0000    1.0000 N.am    1  LIG1        0.0000
     10 C10         1.0000    1.0000    1.0000 C.2     1  LIG1        0.0000
     11 O11         0.2900   -0.2298    1.0000 O.2     1  LIG1       -1.0000
     12 C12         0.3500    2.1258    1.0000 C.2     1  LIG1        0.0000
     13 O13         1.0050    3.2603    1.0000 O.3     1  LIG1        0.0000
     14 C14         0.5629    4.1668    1.8361 C.2     1  LIG1        0.0000
     15 O15        -0.5554    4.0929    2.2650 O.2     1  LIG1        0.0000
     16 C16         1.4246    5.2590    2.2431 C.3     1  LIG1        0.0000
     17 C17         1.8984    6.0935    1.2377 C.3     1  LIG1        0.0000
     18 C18         2.7281    7.1512    1.5915 C.3     1  LIG1        0.0000
     19 C19         3.2347    8.0505    0.4803 C.3     1  LIG1        0.0000
     20 C20         4.7091    8.2322    0.2965 C.3     1  LIG1        0.0000
     21 C21         3.9288    7.3913   -0.6780 C.3     1  LIG1        0.0000
     22 N22         3.0455    7.3356    2.8855 N.pl3   1  LIG1        0.0000
     23 C23         2.6018    6.5444    3.8792 C.3     1  LIG1        0.0000
     24 C24         1.7814    5.4873    3.5734 C.3     1  LIG1        0.0000
     25 C25         1.5015    4.8622    4.8153 C.2     1  LIG1        0.0000
     26 C26         0.6284    3.6373    5.0370 C.3     1  LIG1        0.0000
     27 N27         2.1202    5.5029    5.7791 N.2     1  LIG1        0.0000
     28 N28         2.7723    6.5048    5.2345 N.pl3   1  LIG1        0.0000
     29 C29         3.5471    7.4125    5.9662 C.3     1  LIG1        0.0000
     30 C30         4.1901    8.4360    5.2777 C.3     1  LIG1        0.0000
     31 C31         4.9607    9.3446    5.9955 C.3     1  LIG1        0.0000
     32 C32         5.0765    9.2201    7.3749 C.3     1  LIG1        0.0000
     33 C33         4.4097    8.1762    8.0067 C.3     1  LIG1        0.0000
     34 N34         3.6715    7.3091    7.2982 N.pl3   1  LIG1        0.0000
     35 C35         5.3325    3.6805    2.6297 C.3     1  LIG1        0.0000
     36 C36         6.0283    4.8150    3.0343 C.3     1  LIG1        0.0000
     37 C37         6.3966    4.9589    4.5024 C.3     1  LIG1        0.0000
     38 H           7.2857    7.6150    1.7028 H       1  LIG1        0.0000
     39 H           6.6004    7.5509    3.1837 H       1  LIG1        0.0000
     40 H           8.0143    6.7831    2.9044 H       1  LIG1        0.0000
     41 H           6.2714    6.3312    0.0995 H       1  LIG1        0.0000
     42 H           5.0735    4.3831   -0.6111 H       1  LIG1        0.0000
     43 H           4.6869    1.7813    0.1923 H       1  LIG1        0.0000
     44 H           2.8700    0.1862    0.7038 H       1  LIG1        0.0000
     45 H          -0.6500    2.1258    1.0000 H       1  LIG1        0.0000
     46 H           1.6482    5.9368    0.2823 H       1  LIG1        0.0000
     47 H           2.6631    8.8406    0.2588 H       1  LIG1        0.0000
     48 H           5.3491    7.7982    0.9306 H       1  LIG1        0.0000
     49 H           5.0718    9.1198    0.0124 H       1  LIG1        0.0000
     50 H           3.7713    7.7202   -1.6092 H       1  LIG1        0.0000
     51 H           4.0486    6.3986   -0.6909 H       1  LIG1        0.0000
     52 H           0.2648    3.3239    4.1597 H       1  LIG1        0.0000
     53 H           1.1747    2.9090    5.4507 H       1  LIG1        0.0000
     54 H          -0.1285    3.8734    5.6463 H       1  LIG1        0.0000
     55 H           4.1000    8.5171    4.2851 H       1  LIG1        0.0000
     56 H           5.4314   10.0873    5.5192 H       1  LIG1        0.0000
     57 H           5.6274    9.8674    7.9018 H       1  LIG1        0.0000
     58 H           4.4812    8.0710    8.9985 H       1  LIG1        0.0000
     59 H           5.0826    2.9779    3.2960 H       1  LIG1        0.0000
     60 H           6.0645    4.1632    5.0089 H       1  LIG1        0.0000
     61 H           7.3907    5.0201    4.5922 H       1  LIG1        0.0000
     62 H           5.9768    5.7880    4.8716 H       1  LIG1        0.0000
@<TRIPOS>UNITY_ATOM_ATTR
11 1
charge -1
@<TRIPOS>BOND
     1     1     2    1
     2     2     3   ar
     3     3     4   ar
     4     4     5   ar
     5     5     6    1
     6     6     7   am
     7     7     8    2
     8     7     9   am
     9     9    10    1
    10    10    11    1
    11    10    12    2
    12    12    13    1
    13    13    14    1
    14    14    15    2
    15    14    16    1
    16    16    17   ar
    17    17    18   ar
    18    18    19    1
    19    19    20    1
    20    20    21    1
    21    21    19    1
    22    18    22   ar
    23    22    23   ar
    24    23    24   ar
    25    24    16   ar
    26    24    25    1
    27    25    26    1
    28    25    27    2
    29    27    28    1
    30    28    23    1
    31    28    29    1
    32    29    30   ar
    33    30    31   ar
    34    31    32   ar
    35    32    33   ar
    36    33    34   ar
    37    34    29   ar
    38     5    35   ar
    39    35    36   ar
    40    36     2   ar
    41    36    37    1
    42     1    38    1
    43     1    39    1
    44     1    40    1
    45     3    41    1
    46     4    42    1
    47     6    43    1
    48     9    44    1
    49    12    45    1
    50    17    46    1
    51    19    47    1
    52    20    48    1
    53    20    49    1
    54    21    50    1
    55    21    51    1
    56    26    52    1
    57    26    53    1
    58    26    54    1
    59    30    55    1
    60    31    56    1
    61    32    57    1
    62    33    58    1
    63    35    59    1
    64    37    60    1
    65    37    61    1
    66    37    62    1
