@<TRIPOS>MOLECULE
*****
 62 66 0 0 0
SMALL
USER_CHARGES

@<TRIPOS>ATOM
      1 C1          7.1148    7.0147    2.6136 C.3     1  LIG1        0.0000
      2 C2          6.3693    5.7854    2.1196 C.3     1  LIG1        0.0000
      3 C3          5.6630    5.0209    3.0418 C.3     1  LIG1        0.0000
      4 C4          4.9663    3.8880    2.6344 C.3     1  LIG1        0.0000
      5 C5          4.9872    3.5316    1.2901 C.3     1  LIG1        0.0000
      6 N6          4.2873    2.3925    0.8755 N.am    1  LIG1        0.0000
      7 C7          3.0550    2.1149    1.4058 C.2     1  LIG1        0.0000
      8 O8          2.5756    2.8483    2.2257 O.2     1  LIG1        0.0000
      9 N9          2.3700    1.0000    1.0000 N.am    1  LIG1        0.0000
     10 C10         1.0000    1.0000    1.0000 C.2     1  LIG1        0.0000
     11 O11         0.2900   -0.2298    1.0000 O.2     1  LIG1       -1.0000
     12 C12         0.3500    2.1258    1.0000 C.2     1  LIG1        0.0000
     13 O13         1.0050    3.2603    1.0000 O.3     1  LIG1        0.0000
     14 C14         0.7750    4.0443    2.0240 C.2     1  LIG1        0.0000
     15 O15         0.1523    3.6354    2.9648 O.2     1  LIG1        0.0000
     16 C16         1.2726    5.4057    2.0206 C.3     1  LIG1        0.0000
     17 C17         2.4462    5.6438    1.3150 C.3     1  LIG1        0.0000
     18 C18         2.9531    6.9379    1.2908 C.3     1  LIG1        0.0000
     19 C19         4.2345    7.1774    0.5156 C.3     1  LIG1        0.0000
     20 C20         4.4414    8.4894   -0.1747 C.3     1  LIG1        0.0000
     21 C21         5.2072    8.1729    1.0819 C.3     1  LIG1        0.0000
     22 N22         2.2988    7.9144    1.9445 N.pl3   1  LIG1        0.0000
     23 C23         1.1616    7.7134    2.6349 C.3     1  LIG1        0.0000
     24 C24         0.6277    6.4499    2.6860 C.3     1  LIG1        0.0000
     25 C25        -0.5416    6.5719    3.4794 C.2     1  LIG1        0.0000
     26 C26        -1.5096    5.4577    3.8442 C.3     1  LIG1        0.0000
     27 N27        -0.6786    7.8167    3.8716 N.2     1  LIG1        0.0000
     28 N28         0.3245    8.5025    3.3725 N.pl3   1  LIG1        0.0000
     29 C29         0.5034    9.8751    3.5819 C.3     1  LIG1        0.0000
     30 C30        -0.4291   10.5503    4.3627 C.3     1  LIG1        0.0000
     31 C31        -0.2594   11.9138    4.5788 C.3     1  LIG1        0.0000
     32 C32         0.8269   12.5760    4.0193 C.3     1  LIG1        0.0000
     33 C33         1.7253   11.8465    3.2485 C.3     1  LIG1        0.0000
     34 N34         1.5454   10.5323    3.0503 N.pl3   1  LIG1        0.0000
     35 C35         5.6903    4.2877    0.3575 C.3     1  LIG1        0.0000
     36 C36         6.3832    5.4186    0.7768 C.3     1  LIG1        0.0000
     37 C37         7.1451    6.2316   -0.2578 C.3     1  LIG1        0.0000
     38 H           6.9845    7.1093    3.6005 H       1  LIG1        0.0000
     39 H           8.0897    6.9160    2.4140 H       1  LIG1        0.0000
     40 H           6.7605    7.8276    2.1512 H       1  LIG1        0.0000
     41 H           5.6558    5.2877    4.0055 H       1  LIG1        0.0000
     42 H           4.4584    3.3383    3.2977 H       1  LIG1        0.0000
     43 H           4.6869    1.7813    0.1923 H       1  LIG1        0.0000
     44 H           2.8700    0.1862    0.7038 H       1  LIG1        0.0000
     45 H          -0.6500    2.1258    1.0000 H       1  LIG1        0.0000
     46 H           2.9149    4.9015    0.8361 H       1  LIG1        0.0000
     47 H           4.6343    6.3772    0.0685 H       1  LIG1        0.0000
     48 H           3.7198    9.1816   -0.1594 H       1  LIG1        0.0000
     49 H           4.9159    8.5220   -1.0544 H       1  LIG1        0.0000
     50 H           6.1900    7.9937    1.0377 H       1  LIG1        0.0000
     51 H           4.9939    8.6533    1.9327 H       1  LIG1        0.0000
     52 H          -1.2008    4.6000    3.4332 H       1  LIG1        0.0000
     53 H          -1.5433    5.3577    4.8386 H       1  LIG1        0.0000
     54 H          -2.4215    5.6826    3.5008 H       1  LIG1        0.0000
     55 H          -1.2070   10.0645    4.7612 H       1  LIG1        0.0000
     56 H          -0.9189   12.4176    5.1367 H       1  LIG1        0.0000
     57 H           0.9596   13.5559    4.1679 H       1  LIG1        0.0000
     58 H           2.5130   12.3060    2.8382 H       1  LIG1        0.0000
     59 H           5.6974    4.0204   -0.6061 H       1  LIG1        0.0000
     60 H           7.0352    5.8116   -1.1586 H       1  LIG1        0.0000
     61 H           6.7859    7.1646   -0.2789 H       1  LIG1        0.0000
     62 H           8.1152    6.2532   -0.0162 H       1  LIG1        0.0000
@<TRIPOS>UNITY_ATOM_ATTR
11 1
charge -1
@<TRIPOS>BOND
     1     1     2    1
     2     2     3   ar
     3     3     4   ar
     4     4     5   ar
     5     5     6    1
     6     6     7   am
     7     7     8    2
     8     7     9   am
     9     9    10    1
    10    10    11    1
    11    10    12    2
    12    12    13    1
    13    13    14    1
    14    14    15    2
    15    14    16    1
    16    16    17   ar
    17    17    18   ar
    18    18    19    1
    19    19    20    1
    20    20    21    1
    21    21    19    1
    22    18    22   ar
    23    22    23   ar
    24    23    24   ar
    25    24    16   ar
    26    24    25    1
    27    25    26    1
    28    25    27    2
    29    27    28    1
    30    28    23    1
    31    28    29    1
    32    29    30   ar
    33    30    31   ar
    34    31    32   ar
    35    32    33   ar
    36    33    34   ar
    37    34    29   ar
    38     5    35   ar
    39    35    36   ar
    40    36     2   ar
    41    36    37    1
    42     1    38    1
    43     1    39    1
    44     1    40    1
    45     3    41    1
    46     4    42    1
    47     6    43    1
    48     9    44    1
    49    12    45    1
    50    17    46    1
    51    19    47    1
    52    20    48    1
    53    20    49    1
    54    21    50    1
    55    21    51    1
    56    26    52    1
    57    26    53    1
    58    26    54    1
    59    30    55    1
    60    31    56    1
    61    32    57    1
    62    33    58    1
    63    35    59    1
    64    37    60    1
    65    37    61    1
    66    37    62    1
