@<TRIPOS>MOLECULE
*****
 62 66 0 0 0
SMALL
USER_CHARGES

@<TRIPOS>ATOM
      1 C1          7.8289    5.8613    3.6694 C.3     1  LIG1        0.0000
      2 C2          6.8919    4.9478    2.8956 C.3     1  LIG1        0.0000
      3 C3          6.1286    4.0252    3.6027 C.3     1  LIG1        0.0000
      4 C4          5.2579    3.1696    2.9359 C.3     1  LIG1        0.0000
      5 C5          5.1625    3.2513    1.5508 C.3     1  LIG1        0.0000
      6 N6          4.2873    2.3925    0.8755 N.am    1  LIG1        0.0000
      7 C7          3.0550    2.1149    1.4058 C.2     1  LIG1        0.0000
      8 O8          2.5756    2.8483    2.2257 O.2     1  LIG1        0.0000
      9 N9          2.3700    1.0000    1.0000 N.am    1  LIG1        0.0000
     10 C10         1.0000    1.0000    1.0000 C.2     1  LIG1        0.0000
     11 O11         0.2900   -0.2298    1.0000 O.2     1  LIG1       -1.0000
     12 C12         0.3500    2.1258    1.0000 C.2     1  LIG1        0.0000
     13 O13         1.0050    3.2603    1.0000 O.3     1  LIG1        0.0000
     14 C14         1.2870    3.7487   -0.1824 C.2     1  LIG1        0.0000
     15 O15         1.1105    3.0822   -1.1645 O.2     1  LIG1        0.0000
     16 C16         1.8121    5.0942   -0.3043 C.3     1  LIG1        0.0000
     17 C17         2.6606    5.3426   -1.3768 C.3     1  LIG1        0.0000
     18 C18         3.1837    6.6219   -1.5246 C.3     1  LIG1        0.0000
     19 C19         4.1075    6.8730   -2.7010 C.3     1  LIG1        0.0000
     20 C20         3.5241    7.2618   -4.0235 C.3     1  LIG1        0.0000
     21 C21         4.2371    8.2893   -3.1860 C.3     1  LIG1        0.0000
     22 N22         2.8562    7.5749   -0.6337 N.pl3   1  LIG1        0.0000
     23 C23         2.0378    7.3634    0.4131 C.3     1  LIG1        0.0000
     24 C24         1.5007    6.1138    0.5971 C.3     1  LIG1        0.0000
     25 C25         0.7047    6.2194    1.7662 C.2     1  LIG1        0.0000
     26 C26        -0.1163    5.1116    2.4068 C.3     1  LIG1        0.0000
     27 N27         0.7767    7.4419    2.2378 N.2     1  LIG1        0.0000
     28 N28         1.5618    8.1293    1.4399 N.pl3   1  LIG1        0.0000
     29 C29         1.8677    9.4818    1.6325 C.3     1  LIG1        0.0000
     30 C30         2.1321   10.2641    0.5130 C.3     1  LIG1        0.0000
     31 C31         2.4350   11.6096    0.6931 C.3     1  LIG1        0.0000
     32 C32         2.4684   12.1489    1.9736 C.3     1  LIG1        0.0000
     33 C33         2.1948   11.3163    3.0531 C.3     1  LIG1        0.0000
     34 N34         1.9052   10.0210    2.8606 N.pl3   1  LIG1        0.0000
     35 C35         5.9209    4.1697    0.8315 C.3     1  LIG1        0.0000
     36 C36         6.7882    5.0200    1.5093 C.3     1  LIG1        0.0000
     37 C37         7.6078    6.0167    0.7053 C.3     1  LIG1        0.0000
     38 H           7.7613    5.6579    4.6461 H       1  LIG1        0.0000
     39 H           8.7687    5.7122    3.3621 H       1  LIG1        0.0000
     40 H           7.5729    6.8145    3.5089 H       1  LIG1        0.0000
     41 H           6.2063    3.9765    4.5985 H       1  LIG1        0.0000
     42 H           4.7091    2.5062    3.4445 H       1  LIG1        0.0000
     43 H           4.5616    1.9816    0.0061 H       1  LIG1        0.0000
     44 H           2.8700    0.1862    0.7038 H       1  LIG1        0.0000
     45 H          -0.6500    2.1258    1.0000 H       1  LIG1        0.0000
     46 H           2.8894    4.6179   -2.0268 H       1  LIG1        0.0000
     47 H           4.9395    6.3192   -2.7329 H       1  LIG1        0.0000
     48 H           2.5318    7.3108   -4.1371 H       1  LIG1        0.0000
     49 H           3.9406    6.9308   -4.8703 H       1  LIG1        0.0000
     50 H           5.1279    8.6402   -3.4748 H       1  LIG1        0.0000
     51 H           3.7191    9.0202   -2.7416 H       1  LIG1        0.0000
     52 H          -0.0172    4.2719    1.8729 H       1  LIG1        0.0000
     53 H           0.2075    4.9536    3.3397 H       1  LIG1        0.0000
     54 H          -1.0791    5.3806    2.4293 H       1  LIG1        0.0000
     55 H           2.1050    9.8666   -0.4041 H       1  LIG1        0.0000
     56 H           2.6286   12.1890   -0.0987 H       1  LIG1        0.0000
     57 H           2.6847   13.1148    2.1156 H       1  LIG1        0.0000
     58 H           2.2140   11.6868    3.9817 H       1  LIG1        0.0000
     59 H           5.8430    4.2180   -0.1643 H       1  LIG1        0.0000
     60 H           7.3955    5.9157   -0.2667 H       1  LIG1        0.0000
     61 H           7.3856    6.9460    1.0003 H       1  LIG1        0.0000
     62 H           8.5816    5.8439    0.8534 H       1  LIG1        0.0000
@<TRIPOS>UNITY_ATOM_ATTR
11 1
charge -1
@<TRIPOS>BOND
     1     1     2    1
     2     2     3   ar
     3     3     4   ar
     4     4     5   ar
     5     5     6    1
     6     6     7   am
     7     7     8    2
     8     7     9   am
     9     9    10    1
    10    10    11    1
    11    10    12    2
    12    12    13    1
    13    13    14    1
    14    14    15    2
    15    14    16    1
    16    16    17   ar
    17    17    18   ar
    18    18    19    1
    19    19    20    1
    20    20    21    1
    21    21    19    1
    22    18    22   ar
    23    22    23   ar
    24    23    24   ar
    25    24    16   ar
    26    24    25    1
    27    25    26    1
    28    25    27    2
    29    27    28    1
    30    28    23    1
    31    28    29    1
    32    29    30   ar
    33    30    31   ar
    34    31    32   ar
    35    32    33   ar
    36    33    34   ar
    37    34    29   ar
    38     5    35   ar
    39    35    36   ar
    40    36     2   ar
    41    36    37    1
    42     1    38    1
    43     1    39    1
    44     1    40    1
    45     3    41    1
    46     4    42    1
    47     6    43    1
    48     9    44    1
    49    12    45    1
    50    17    46    1
    51    19    47    1
    52    20    48    1
    53    20    49    1
    54    21    50    1
    55    21    51    1
    56    26    52    1
    57    26    53    1
    58    26    54    1
    59    30    55    1
    60    31    56    1
    61    32    57    1
    62    33    58    1
    63    35    59    1
    64    37    60    1
    65    37    61    1
    66    37    62    1
