@<TRIPOS>MOLECULE

  24   26
SMALL
USER_CHARGES
@<TRIPOS>ATOM
   1 C1           3.4903    -2.0412    -0.7221 C.2          1    LIG   0.0000
   2 N2           2.5688    -1.2230    -0.2655 N.2          1    LIG   0.0000
   3 C3           2.9988    -0.0908     0.3862 C.2          1    LIG   0.0000
   4 C4           4.3479     0.0405     0.4834 C.2          1    LIG   0.0000
   5 S5           4.9780    -1.3340    -0.2931 S.3          1    LIG   0.0000
   6 C6           5.1708     1.1459     1.1277 C.3          1    LIG   0.0000
   7 C7           4.3178     1.7247     2.2440 C.3          1    LIG   0.0000
   8 C8           2.9860     2.1680     1.6591 C.3          1    LIG   0.0000
   9 C9           2.2698     1.0000     1.0000 C.2          1    LIG   0.0000
  10 N10          1.0000     1.0000     1.0000 N.2          1    LIG   0.0000
  11 N11          0.4507    -0.2337     1.0000 N.pl3        1    LIG   0.0000
  12 C12          0.9947    -1.3570     1.5507 C.2          1    LIG   0.0000
  13 N13          0.1507    -2.3442     1.3409 N.2          1    LIG   0.0000
  14 N14         -0.8920    -1.8729     0.6739 N.2          1    LIG   0.0000
  15 C15         -0.7436    -0.5887     0.4461 C.2          1    LIG   0.0000
  16 H            3.3476    -2.8983    -1.2172 H            1    LIG   0.0000
  17 H            5.3855     1.8536     0.4547 H            1    LIG   0.0000
  18 H            6.0200     0.7718     1.5005 H            1    LIG   0.0000
  19 H            4.7844     2.5096     2.6518 H            1    LIG   0.0000
  20 H            4.1626     1.0283     2.9447 H            1    LIG   0.0000
  21 H            2.4117     2.5335     2.3916 H            1    LIG   0.0000
  22 H            3.1488     2.8802     0.9763 H            1    LIG   0.0000
  23 H            1.8725    -1.4187     2.0259 H            1    LIG   0.0000
  24 H           -1.3808     0.0110    -0.0380 H            1    LIG   0.0000
@<TRIPOS>BOND
   1        1        2 2
   2        2        3 1
   3        3        4 2
   4        4        5 1
   5        5        1 1
   6        4        6 1
   7        6        7 1
   8        7        8 1
   9        8        9 1
  10        9        3 1
  11        9       10 2
  12       10       11 1
  13       11       12 1
  14       12       13 2
  15       13       14 1
  16       14       15 2
  17       15       11 1
  18        1       16 1
  19        6       17 1
  20        6       18 1
  21        7       19 1
  22        7       20 1
  23        8       21 1
  24        8       22 1
  25       12       23 1
  26       15       24 1

@<TRIPOS>MOLECULE

  24   26
SMALL
USER_CHARGES
@<TRIPOS>ATOM
   1 C1           3.4903    -2.0412    -0.7221 C.2          1    LIG   0.0000
   2 N2           2.5688    -1.2230    -0.2655 N.2          1    LIG   0.0000
   3 C3           2.9988    -0.0908     0.3862 C.2          1    LIG   0.0000
   4 C4           4.3479     0.0405     0.4834 C.2          1    LIG   0.0000
   5 S5           4.9780    -1.3340    -0.2931 S.3          1    LIG   0.0000
   6 C6           5.1708     1.1459     1.1277 C.3          1    LIG   0.0000
   7 C7           4.3178     1.7247     2.2440 C.3          1    LIG   0.0000
   8 C8           2.9860     2.1680     1.6591 C.3          1    LIG   0.0000
   9 C9           2.2698     1.0000     1.0000 C.2          1    LIG   0.0000
  10 N10          1.0000     1.0000     1.0000 N.2          1    LIG   0.0000
  11 N11          0.4507    -0.2337     1.0000 N.pl3        1    LIG   0.0000
  12 C12         -0.3798    -0.7451     0.0461 C.2          1    LIG   0.0000
  13 N13         -0.6897    -1.9700     0.4126 N.2          1    LIG   0.0000
  14 N14         -0.0865    -2.2316     1.5624 N.2          1    LIG   0.0000
  15 C15          0.6172    -1.1946     1.9530 C.2          1    LIG   0.0000
  16 H            3.3476    -2.8983    -1.2172 H            1    LIG   0.0000
  17 H            5.3855     1.8536     0.4547 H            1    LIG   0.0000
  18 H            6.0200     0.7718     1.5005 H            1    LIG   0.0000
  19 H            4.7844     2.5096     2.6518 H            1    LIG   0.0000
  20 H            4.1626     1.0283     2.9447 H            1    LIG   0.0000
  21 H            2.4117     2.5335     2.3916 H            1    LIG   0.0000
  22 H            3.1488     2.8802     0.9763 H            1    LIG   0.0000
  23 H           -0.6947    -0.2757    -0.7789 H            1    LIG   0.0000
  24 H            1.1670    -1.1233     2.7853 H            1    LIG   0.0000
@<TRIPOS>BOND
   1        1        2 2
   2        2        3 1
   3        3        4 2
   4        4        5 1
   5        5        1 1
   6        4        6 1
   7        6        7 1
   8        7        8 1
   9        8        9 1
  10        9        3 1
  11        9       10 2
  12       10       11 1
  13       11       12 1
  14       12       13 2
  15       13       14 1
  16       14       15 2
  17       15       11 1
  18        1       16 1
  19        6       17 1
  20        6       18 1
  21        7       19 1
  22        7       20 1
  23        8       21 1
  24        8       22 1
  25       12       23 1
  26       15       24 1

@<TRIPOS>MOLECULE

  24   26
SMALL
USER_CHARGES
@<TRIPOS>ATOM
   1 C1           3.4903    -2.0412    -0.7221 C.2          1    LIG   0.0000
   2 N2           2.5688    -1.2230    -0.2655 N.2          1    LIG   0.0000
   3 C3           2.9988    -0.0908     0.3862 C.2          1    LIG   0.0000
   4 C4           4.3479     0.0405     0.4834 C.2          1    LIG   0.0000
   5 S5           4.9780    -1.3340    -0.2931 S.3          1    LIG   0.0000
   6 C6           5.1708     1.1459     1.1277 C.3          1    LIG   0.0000
   7 C7           4.3178     1.7247     2.2440 C.3          1    LIG   0.0000
   8 C8           2.9860     2.1680     1.6591 C.3          1    LIG   0.0000
   9 C9           2.2698     1.0000     1.0000 C.2          1    LIG   0.0000
  10 N10          1.0000     1.0000     1.0000 N.2          1    LIG   0.0000
  11 N11          0.4507    -0.2337     1.0000 N.pl3        1    LIG   0.0000
  12 C12          0.1233    -0.9691     2.1015 C.2          1    LIG   0.0000
  13 N13         -0.3859    -2.1052     1.6765 N.2          1    LIG   0.0000
  14 N14         -0.3783    -2.1016     0.3520 N.2          1    LIG   0.0000
  15 C15          0.1270    -0.9763    -0.0968 C.2          1    LIG   0.0000
  16 H            3.3476    -2.8983    -1.2172 H            1    LIG   0.0000
  17 H            5.3855     1.8536     0.4547 H            1    LIG   0.0000
  18 H            6.0200     0.7718     1.5005 H            1    LIG   0.0000
  19 H            4.7844     2.5096     2.6518 H            1    LIG   0.0000
  20 H            4.1626     1.0283     2.9447 H            1    LIG   0.0000
  21 H            2.4117     2.5335     2.3916 H            1    LIG   0.0000
  22 H            3.1488     2.8802     0.9763 H            1    LIG   0.0000
  23 H            0.2474    -0.6952     3.0552 H            1    LIG   0.0000
  24 H            0.2502    -0.7151    -1.0542 H            1    LIG   0.0000
@<TRIPOS>BOND
   1        1        2 2
   2        2        3 1
   3        3        4 2
   4        4        5 1
   5        5        1 1
   6        4        6 1
   7        6        7 1
   8        7        8 1
   9        8        9 1
  10        9        3 1
  11        9       10 2
  12       10       11 1
  13       11       12 1
  14       12       13 2
  15       13       14 1
  16       14       15 2
  17       15       11 1
  18        1       16 1
  19        6       17 1
  20        6       18 1
  21        7       19 1
  22        7       20 1
  23        8       21 1
  24        8       22 1
  25       12       23 1
  26       15       24 1

@<TRIPOS>MOLECULE

  24   26
SMALL
USER_CHARGES
@<TRIPOS>ATOM
   1 C1           3.4779    -2.2493    -0.2898 C.2          1    LIG   0.0000
   2 N2           2.5587    -1.3815     0.0700 N.2          1    LIG   0.0000
   3 C3           3.0036    -0.1604     0.5292 C.2          1    LIG   0.0000
   4 C4           4.3538     0.0003     0.5550 C.2          1    LIG   0.0000
   5 S5           4.9704    -1.4688    -0.0361 S.3          1    LIG   0.0000
   6 C6           5.1952     1.1905     0.9909 C.3          1    LIG   0.0000
   7 C7           4.3332     2.4292     0.8131 C.3          1    LIG   0.0000
   8 C8           2.9918     2.2403     1.5055 C.3          1    LIG   0.0000
   9 C9           2.2714     1.0000     1.0000 C.2          1    LIG   0.0000
  10 N10          1.0000     1.0000     1.0000 N.2          1    LIG   0.0000
  11 N11          0.4507    -0.2337     1.0000 N.pl3        1    LIG   0.0000
  12 C12          0.8348    -1.2859     1.7789 C.2          1    LIG   0.0000
  13 N13          0.0519    -2.3002     1.4805 N.2          1    LIG   0.0000
  14 N14         -0.7975    -1.9150     0.5401 N.2          1    LIG   0.0000
  15 C15         -0.5832    -0.6601     0.2200 C.2          1    LIG   0.0000
  16 H            3.3316    -3.1746    -0.6395 H            1    LIG   0.0000
  17 H            6.0156     1.2580     0.4231 H            1    LIG   0.0000
  18 H            5.4608     1.0911     1.9499 H            1    LIG   0.0000
  19 H            4.1817     2.5888    -0.1624 H            1    LIG   0.0000
  20 H            4.8021     3.2177     1.2110 H            1    LIG   0.0000
  21 H            3.1445     2.1486     2.4895 H            1    LIG   0.0000
  22 H            2.4202     3.0418     1.3301 H            1    LIG   0.0000
  23 H            1.5745    -1.2860     2.4519 H            1    LIG   0.0000
  24 H           -1.0802    -0.1228    -0.4615 H            1    LIG   0.0000
@<TRIPOS>BOND
   1        1        2 2
   2        2        3 1
   3        3        4 2
   4        4        5 1
   5        5        1 1
   6        4        6 1
   7        6        7 1
   8        7        8 1
   9        8        9 1
  10        9        3 1
  11        9       10 2
  12       10       11 1
  13       11       12 1
  14       12       13 2
  15       13       14 1
  16       14       15 2
  17       15       11 1
  18        1       16 1
  19        6       17 1
  20        6       18 1
  21        7       19 1
  22        7       20 1
  23        8       21 1
  24        8       22 1
  25       12       23 1
  26       15       24 1

@<TRIPOS>MOLECULE

  24   26
SMALL
USER_CHARGES
@<TRIPOS>ATOM
   1 C1           3.4779    -2.2493    -0.2898 C.2          1    LIG   0.0000
   2 N2           2.5587    -1.3815     0.0700 N.2          1    LIG   0.0000
   3 C3           3.0036    -0.1604     0.5292 C.2          1    LIG   0.0000
   4 C4           4.3538     0.0003     0.5550 C.2          1    LIG   0.0000
   5 S5           4.9704    -1.4688    -0.0361 S.3          1    LIG   0.0000
   6 C6           5.1952     1.1905     0.9909 C.3          1    LIG   0.0000
   7 C7           4.3332     2.4292     0.8131 C.3          1    LIG   0.0000
   8 C8           2.9918     2.2403     1.5055 C.3          1    LIG   0.0000
   9 C9           2.2714     1.0000     1.0000 C.2          1    LIG   0.0000
  10 N10          1.0000     1.0000     1.0000 N.2          1    LIG   0.0000
  11 N11          0.4507    -0.2337     1.0000 N.pl3        1    LIG   0.0000
  12 C12         -0.3798    -0.7451     0.0461 C.2          1    LIG   0.0000
  13 N13         -0.6897    -1.9700     0.4126 N.2          1    LIG   0.0000
  14 N14         -0.0865    -2.2316     1.5624 N.2          1    LIG   0.0000
  15 C15          0.6172    -1.1946     1.9530 C.2          1    LIG   0.0000
  16 H            3.3316    -3.1746    -0.6395 H            1    LIG   0.0000
  17 H            6.0156     1.2580     0.4231 H            1    LIG   0.0000
  18 H            5.4608     1.0911     1.9499 H            1    LIG   0.0000
  19 H            4.1817     2.5888    -0.1624 H            1    LIG   0.0000
  20 H            4.8021     3.2177     1.2110 H            1    LIG   0.0000
  21 H            3.1445     2.1486     2.4895 H            1    LIG   0.0000
  22 H            2.4202     3.0418     1.3301 H            1    LIG   0.0000
  23 H           -0.6947    -0.2757    -0.7789 H            1    LIG   0.0000
  24 H            1.1670    -1.1233     2.7853 H            1    LIG   0.0000
@<TRIPOS>BOND
   1        1        2 2
   2        2        3 1
   3        3        4 2
   4        4        5 1
   5        5        1 1
   6        4        6 1
   7        6        7 1
   8        7        8 1
   9        8        9 1
  10        9        3 1
  11        9       10 2
  12       10       11 1
  13       11       12 1
  14       12       13 2
  15       13       14 1
  16       14       15 2
  17       15       11 1
  18        1       16 1
  19        6       17 1
  20        6       18 1
  21        7       19 1
  22        7       20 1
  23        8       21 1
  24        8       22 1
  25       12       23 1
  26       15       24 1

@<TRIPOS>MOLECULE

  24   26
SMALL
USER_CHARGES
@<TRIPOS>ATOM
   1 C1           3.4779    -2.2493    -0.2898 C.2          1    LIG   0.0000
   2 N2           2.5587    -1.3815     0.0700 N.2          1    LIG   0.0000
   3 C3           3.0036    -0.1604     0.5292 C.2          1    LIG   0.0000
   4 C4           4.3538     0.0003     0.5550 C.2          1    LIG   0.0000
   5 S5           4.9704    -1.4688    -0.0361 S.3          1    LIG   0.0000
   6 C6           5.1952     1.1905     0.9909 C.3          1    LIG   0.0000
   7 C7           4.3332     2.4292     0.8131 C.3          1    LIG   0.0000
   8 C8           2.9918     2.2403     1.5055 C.3          1    LIG   0.0000
   9 C9           2.2714     1.0000     1.0000 C.2          1    LIG   0.0000
  10 N10          1.0000     1.0000     1.0000 N.2          1    LIG   0.0000
  11 N11          0.4507    -0.2337     1.0000 N.pl3        1    LIG   0.0000
  12 C12          0.1233    -0.9691     2.1015 C.2          1    LIG   0.0000
  13 N13         -0.3859    -2.1052     1.6765 N.2          1    LIG   0.0000
  14 N14         -0.3783    -2.1016     0.3520 N.2          1    LIG   0.0000
  15 C15          0.1270    -0.9763    -0.0968 C.2          1    LIG   0.0000
  16 H            3.3316    -3.1746    -0.6395 H            1    LIG   0.0000
  17 H            6.0156     1.2580     0.4231 H            1    LIG   0.0000
  18 H            5.4608     1.0911     1.9499 H            1    LIG   0.0000
  19 H            4.1817     2.5888    -0.1624 H            1    LIG   0.0000
  20 H            4.8021     3.2177     1.2110 H            1    LIG   0.0000
  21 H            3.1445     2.1486     2.4895 H            1    LIG   0.0000
  22 H            2.4202     3.0418     1.3301 H            1    LIG   0.0000
  23 H            0.2474    -0.6952     3.0552 H            1    LIG   0.0000
  24 H            0.2502    -0.7151    -1.0542 H            1    LIG   0.0000
@<TRIPOS>BOND
   1        1        2 2
   2        2        3 1
   3        3        4 2
   4        4        5 1
   5        5        1 1
   6        4        6 1
   7        6        7 1
   8        7        8 1
   9        8        9 1
  10        9        3 1
  11        9       10 2
  12       10       11 1
  13       11       12 1
  14       12       13 2
  15       13       14 1
  16       14       15 2
  17       15       11 1
  18        1       16 1
  19        6       17 1
  20        6       18 1
  21        7       19 1
  22        7       20 1
  23        8       21 1
  24        8       22 1
  25       12       23 1
  26       15       24 1

@<TRIPOS>MOLECULE

  24   26
SMALL
USER_CHARGES
@<TRIPOS>ATOM
   1 C1           3.2296    -2.4667     0.1428 C.2          1    LIG   0.0000
   2 N2           2.4046    -1.4873     0.4141 N.2          1    LIG   0.0000
   3 C3           2.9308    -0.2454     0.6744 C.2          1    LIG   0.0000
   4 C4           4.2855    -0.1492     0.6294 C.2          1    LIG   0.0000
   5 S5           4.7648    -1.7332     0.2383 S.3          1    LIG   0.0000
   6 C6           5.1820     1.0580     0.8680 C.3          1    LIG   0.0000
   7 C7           4.4486     1.9424     1.8635 C.3          1    LIG   0.0000
   8 C8           3.0614     2.2581     1.3238 C.3          1    LIG   0.0000
   9 C9           2.2690     1.0000     1.0000 C.2          1    LIG   0.0000
  10 N10          1.0000     1.0000     1.0000 N.2          1    LIG   0.0000
  11 N11          0.4507    -0.2337     1.0000 N.pl3        1    LIG   0.0000
  12 C12         -0.3798    -0.7451     0.0461 C.2          1    LIG   0.0000
  13 N13         -0.6897    -1.9700     0.4126 N.2          1    LIG   0.0000
  14 N14         -0.0865    -2.2316     1.5624 N.2          1    LIG   0.0000
  15 C15          0.6172    -1.1946     1.9530 C.2          1    LIG   0.0000
  16 H            3.0110    -3.4191    -0.0699 H            1    LIG   0.0000
  17 H            5.3333     1.5519     0.0117 H            1    LIG   0.0000
  18 H            6.0614     0.7674     1.2450 H            1    LIG   0.0000
  19 H            4.9582     2.7928     1.9945 H            1    LIG   0.0000
  20 H            4.3666     1.4649     2.7383 H            1    LIG   0.0000
  21 H            2.5612     2.7856     2.0105 H            1    LIG   0.0000
  22 H            3.1566     2.8019     0.4900 H            1    LIG   0.0000
  23 H           -0.6947    -0.2757    -0.7789 H            1    LIG   0.0000
  24 H            1.1670    -1.1233     2.7853 H            1    LIG   0.0000
@<TRIPOS>BOND
   1        1        2 2
   2        2        3 1
   3        3        4 2
   4        4        5 1
   5        5        1 1
   6        4        6 1
   7        6        7 1
   8        7        8 1
   9        8        9 1
  10        9        3 1
  11        9       10 2
  12       10       11 1
  13       11       12 1
  14       12       13 2
  15       13       14 1
  16       14       15 2
  17       15       11 1
  18        1       16 1
  19        6       17 1
  20        6       18 1
  21        7       19 1
  22        7       20 1
  23        8       21 1
  24        8       22 1
  25       12       23 1
  26       15       24 1

@<TRIPOS>MOLECULE

  24   26
SMALL
USER_CHARGES
@<TRIPOS>ATOM
   1 C1           3.2296    -2.4667     0.1428 C.2          1    LIG   0.0000
   2 N2           2.4046    -1.4873     0.4141 N.2          1    LIG   0.0000
   3 C3           2.9308    -0.2454     0.6744 C.2          1    LIG   0.0000
   4 C4           4.2855    -0.1492     0.6294 C.2          1    LIG   0.0000
   5 S5           4.7648    -1.7332     0.2383 S.3          1    LIG   0.0000
   6 C6           5.1820     1.0580     0.8680 C.3          1    LIG   0.0000
   7 C7           4.4486     1.9424     1.8635 C.3          1    LIG   0.0000
   8 C8           3.0614     2.2581     1.3238 C.3          1    LIG   0.0000
   9 C9           2.2690     1.0000     1.0000 C.2          1    LIG   0.0000
  10 N10          1.0000     1.0000     1.0000 N.2          1    LIG   0.0000
  11 N11          0.4507    -0.2337     1.0000 N.pl3        1    LIG   0.0000
  12 C12          0.1233    -0.9691     2.1015 C.2          1    LIG   0.0000
  13 N13         -0.3859    -2.1052     1.6765 N.2          1    LIG   0.0000
  14 N14         -0.3783    -2.1016     0.3520 N.2          1    LIG   0.0000
  15 C15          0.1270    -0.9763    -0.0968 C.2          1    LIG   0.0000
  16 H            3.0110    -3.4191    -0.0699 H            1    LIG   0.0000
  17 H            5.3333     1.5519     0.0117 H            1    LIG   0.0000
  18 H            6.0614     0.7674     1.2450 H            1    LIG   0.0000
  19 H            4.9582     2.7928     1.9945 H            1    LIG   0.0000
  20 H            4.3666     1.4649     2.7383 H            1    LIG   0.0000
  21 H            2.5612     2.7856     2.0105 H            1    LIG   0.0000
  22 H            3.1566     2.8019     0.4900 H            1    LIG   0.0000
  23 H            0.2474    -0.6952     3.0552 H            1    LIG   0.0000
  24 H            0.2502    -0.7151    -1.0542 H            1    LIG   0.0000
@<TRIPOS>BOND
   1        1        2 2
   2        2        3 1
   3        3        4 2
   4        4        5 1
   5        5        1 1
   6        4        6 1
   7        6        7 1
   8        7        8 1
   9        8        9 1
  10        9        3 1
  11        9       10 2
  12       10       11 1
  13       11       12 1
  14       12       13 2
  15       13       14 1
  16       14       15 2
  17       15       11 1
  18        1       16 1
  19        6       17 1
  20        6       18 1
  21        7       19 1
  22        7       20 1
  23        8       21 1
  24        8       22 1
  25       12       23 1
  26       15       24 1

@<TRIPOS>MOLECULE

  24   26
SMALL
USER_CHARGES
@<TRIPOS>ATOM
   1 C1           3.5633    -2.0234    -0.7209 C.2          1    LIG   0.0000
   2 N2           2.6507    -1.1203    -0.4466 N.2          1    LIG   0.0000
   3 C3           2.9472    -0.1526     0.4934 C.2          1    LIG   0.0000
   4 C4           4.1796    -0.2672     1.0498 C.2          1    LIG   0.0000
   5 S5           4.8761    -1.6201     0.2883 S.3          1    LIG   0.0000
   6 C6           4.8140     0.6125     2.1155 C.3          1    LIG   0.0000
   7 C7           4.4042     2.0527     1.8256 C.3          1    LIG   0.0000
   8 C8           2.9185     2.2515     1.5693 C.3          1    LIG   0.0000
   9 C9           2.2611     1.0000     1.0000 C.2          1    LIG   0.0000
  10 N10          1.0000     1.0000     1.0000 N.2          1    LIG   0.0000
  11 N11          0.4507    -0.2337     1.0000 N.pl3        1    LIG   0.0000
  12 C12          0.9947    -1.3570     1.5507 C.2          1    LIG   0.0000
  13 N13          0.1507    -2.3442     1.3409 N.2          1    LIG   0.0000
  14 N14         -0.8920    -1.8729     0.6739 N.2          1    LIG   0.0000
  15 C15         -0.7436    -0.5887     0.4461 C.2          1    LIG   0.0000
  16 H            3.5019    -2.7777    -1.3746 H            1    LIG   0.0000
  17 H            5.8097     0.5272     2.0801 H            1    LIG   0.0000
  18 H            4.4881     0.3405     3.0209 H            1    LIG   0.0000
  19 H            4.9040     2.3619     1.0165 H            1    LIG   0.0000
  20 H            4.6625     2.6142     2.6117 H            1    LIG   0.0000
  21 H            2.4712     2.4863     2.4323 H            1    LIG   0.0000
  22 H            2.8014     3.0015     0.9183 H            1    LIG   0.0000
  23 H            1.8725    -1.4187     2.0259 H            1    LIG   0.0000
  24 H           -1.3808     0.0110    -0.0380 H            1    LIG   0.0000
@<TRIPOS>BOND
   1        1        2 2
   2        2        3 1
   3        3        4 2
   4        4        5 1
   5        5        1 1
   6        4        6 1
   7        6        7 1
   8        7        8 1
   9        8        9 1
  10        9        3 1
  11        9       10 2
  12       10       11 1
  13       11       12 1
  14       12       13 2
  15       13       14 1
  16       14       15 2
  17       15       11 1
  18        1       16 1
  19        6       17 1
  20        6       18 1
  21        7       19 1
  22        7       20 1
  23        8       21 1
  24        8       22 1
  25       12       23 1
  26       15       24 1

@<TRIPOS>MOLECULE

  24   26
SMALL
USER_CHARGES
@<TRIPOS>ATOM
   1 C1           3.5633    -2.0234    -0.7209 C.2          1    LIG   0.0000
   2 N2           2.6507    -1.1203    -0.4466 N.2          1    LIG   0.0000
   3 C3           2.9472    -0.1526     0.4934 C.2          1    LIG   0.0000
   4 C4           4.1796    -0.2672     1.0498 C.2          1    LIG   0.0000
   5 S5           4.8761    -1.6201     0.2883 S.3          1    LIG   0.0000
   6 C6           4.8140     0.6125     2.1155 C.3          1    LIG   0.0000
   7 C7           4.4042     2.0527     1.8256 C.3          1    LIG   0.0000
   8 C8           2.9185     2.2515     1.5693 C.3          1    LIG   0.0000
   9 C9           2.2611     1.0000     1.0000 C.2          1    LIG   0.0000
  10 N10          1.0000     1.0000     1.0000 N.2          1    LIG   0.0000
  11 N11          0.4507    -0.2337     1.0000 N.pl3        1    LIG   0.0000
  12 C12          0.8348    -1.2859     1.7789 C.2          1    LIG   0.0000
  13 N13          0.0519    -2.3002     1.4805 N.2          1    LIG   0.0000
  14 N14         -0.7975    -1.9150     0.5401 N.2          1    LIG   0.0000
  15 C15         -0.5832    -0.6601     0.2200 C.2          1    LIG   0.0000
  16 H            3.5019    -2.7777    -1.3746 H            1    LIG   0.0000
  17 H            5.8097     0.5272     2.0801 H            1    LIG   0.0000
  18 H            4.4881     0.3405     3.0209 H            1    LIG   0.0000
  19 H            4.9040     2.3619     1.0165 H            1    LIG   0.0000
  20 H            4.6625     2.6142     2.6117 H            1    LIG   0.0000
  21 H            2.4712     2.4863     2.4323 H            1    LIG   0.0000
  22 H            2.8014     3.0015     0.9183 H            1    LIG   0.0000
  23 H            1.5745    -1.2860     2.4519 H            1    LIG   0.0000
  24 H           -1.0802    -0.1228    -0.4615 H            1    LIG   0.0000
@<TRIPOS>BOND
   1        1        2 2
   2        2        3 1
   3        3        4 2
   4        4        5 1
   5        5        1 1
   6        4        6 1
   7        6        7 1
   8        7        8 1
   9        8        9 1
  10        9        3 1
  11        9       10 2
  12       10       11 1
  13       11       12 1
  14       12       13 2
  15       13       14 1
  16       14       15 2
  17       15       11 1
  18        1       16 1
  19        6       17 1
  20        6       18 1
  21        7       19 1
  22        7       20 1
  23        8       21 1
  24        8       22 1
  25       12       23 1
  26       15       24 1

@<TRIPOS>MOLECULE

  24   26
SMALL
USER_CHARGES
@<TRIPOS>ATOM
   1 C1           3.5633    -2.0234    -0.7209 C.2          1    LIG   0.0000
   2 N2           2.6507    -1.1203    -0.4466 N.2          1    LIG   0.0000
   3 C3           2.9472    -0.1526     0.4934 C.2          1    LIG   0.0000
   4 C4           4.1796    -0.2672     1.0498 C.2          1    LIG   0.0000
   5 S5           4.8761    -1.6201     0.2883 S.3          1    LIG   0.0000
   6 C6           4.8140     0.6125     2.1155 C.3          1    LIG   0.0000
   7 C7           4.4042     2.0527     1.8256 C.3          1    LIG   0.0000
   8 C8           2.9185     2.2515     1.5693 C.3          1    LIG   0.0000
   9 C9           2.2611     1.0000     1.0000 C.2          1    LIG   0.0000
  10 N10          1.0000     1.0000     1.0000 N.2          1    LIG   0.0000
  11 N11          0.4507    -0.2337     1.0000 N.pl3        1    LIG   0.0000
  12 C12         -0.3798    -0.7451     0.0461 C.2          1    LIG   0.0000
  13 N13         -0.6897    -1.9700     0.4126 N.2          1    LIG   0.0000
  14 N14         -0.0865    -2.2316     1.5624 N.2          1    LIG   0.0000
  15 C15          0.6172    -1.1946     1.9530 C.2          1    LIG   0.0000
  16 H            3.5019    -2.7777    -1.3746 H            1    LIG   0.0000
  17 H            5.8097     0.5272     2.0801 H            1    LIG   0.0000
  18 H            4.4881     0.3405     3.0209 H            1    LIG   0.0000
  19 H            4.9040     2.3619     1.0165 H            1    LIG   0.0000
  20 H            4.6625     2.6142     2.6117 H            1    LIG   0.0000
  21 H            2.4712     2.4863     2.4323 H            1    LIG   0.0000
  22 H            2.8014     3.0015     0.9183 H            1    LIG   0.0000
  23 H           -0.6947    -0.2757    -0.7789 H            1    LIG   0.0000
  24 H            1.1670    -1.1233     2.7853 H            1    LIG   0.0000
@<TRIPOS>BOND
   1        1        2 2
   2        2        3 1
   3        3        4 2
   4        4        5 1
   5        5        1 1
   6        4        6 1
   7        6        7 1
   8        7        8 1
   9        8        9 1
  10        9        3 1
  11        9       10 2
  12       10       11 1
  13       11       12 1
  14       12       13 2
  15       13       14 1
  16       14       15 2
  17       15       11 1
  18        1       16 1
  19        6       17 1
  20        6       18 1
  21        7       19 1
  22        7       20 1
  23        8       21 1
  24        8       22 1
  25       12       23 1
  26       15       24 1

@<TRIPOS>MOLECULE

  24   26
SMALL
USER_CHARGES
@<TRIPOS>ATOM
   1 C1           3.5633    -2.0234    -0.7209 C.2          1    LIG   0.0000
   2 N2           2.6507    -1.1203    -0.4466 N.2          1    LIG   0.0000
   3 C3           2.9472    -0.1526     0.4934 C.2          1    LIG   0.0000
   4 C4           4.1796    -0.2672     1.0498 C.2          1    LIG   0.0000
   5 S5           4.8761    -1.6201     0.2883 S.3          1    LIG   0.0000
   6 C6           4.8140     0.6125     2.1155 C.3          1    LIG   0.0000
   7 C7           4.4042     2.0527     1.8256 C.3          1    LIG   0.0000
   8 C8           2.9185     2.2515     1.5693 C.3          1    LIG   0.0000
   9 C9           2.2611     1.0000     1.0000 C.2          1    LIG   0.0000
  10 N10          1.0000     1.0000     1.0000 N.2          1    LIG   0.0000
  11 N11          0.4507    -0.2337     1.0000 N.pl3        1    LIG   0.0000
  12 C12          0.1233    -0.9691     2.1015 C.2          1    LIG   0.0000
  13 N13         -0.3859    -2.1052     1.6765 N.2          1    LIG   0.0000
  14 N14         -0.3783    -2.1016     0.3520 N.2          1    LIG   0.0000
  15 C15          0.1270    -0.9763    -0.0968 C.2          1    LIG   0.0000
  16 H            3.5019    -2.7777    -1.3746 H            1    LIG   0.0000
  17 H            5.8097     0.5272     2.0801 H            1    LIG   0.0000
  18 H            4.4881     0.3405     3.0209 H            1    LIG   0.0000
  19 H            4.9040     2.3619     1.0165 H            1    LIG   0.0000
  20 H            4.6625     2.6142     2.6117 H            1    LIG   0.0000
  21 H            2.4712     2.4863     2.4323 H            1    LIG   0.0000
  22 H            2.8014     3.0015     0.9183 H            1    LIG   0.0000
  23 H            0.2474    -0.6952     3.0552 H            1    LIG   0.0000
  24 H            0.2502    -0.7151    -1.0542 H            1    LIG   0.0000
@<TRIPOS>BOND
   1        1        2 2
   2        2        3 1
   3        3        4 2
   4        4        5 1
   5        5        1 1
   6        4        6 1
   7        6        7 1
   8        7        8 1
   9        8        9 1
  10        9        3 1
  11        9       10 2
  12       10       11 1
  13       11       12 1
  14       12       13 2
  15       13       14 1
  16       14       15 2
  17       15       11 1
  18        1       16 1
  19        6       17 1
  20        6       18 1
  21        7       19 1
  22        7       20 1
  23        8       21 1
  24        8       22 1
  25       12       23 1
  26       15       24 1

