@<TRIPOS>MOLECULE
*****
 24 26 0 0 0
SMALL
USER_CHARGES

@<TRIPOS>ATOM
      1 C1          3.5633   -2.0234   -0.7209 C.2     1  LIG1        0.0000
      2 N2          2.6507   -1.1203   -0.4466 N.2     1  LIG1        0.0000
      3 C3          2.9472   -0.1526    0.4934 C.2     1  LIG1        0.0000
      4 C4          4.1796   -0.2672    1.0498 C.2     1  LIG1        0.0000
      5 S5          4.8761   -1.6201    0.2883 S.3     1  LIG1        0.0000
      6 C6          4.8140    0.6125    2.1155 C.3     1  LIG1        0.0000
      7 C7          4.4042    2.0527    1.8256 C.3     1  LIG1        0.0000
      8 C8          2.9185    2.2515    1.5693 C.3     1  LIG1        0.0000
      9 C9          2.2611    1.0000    1.0000 C.2     1  LIG1        0.0000
     10 N10         1.0000    1.0000    1.0000 N.2     1  LIG1        0.0000
     11 N11         0.4507   -0.2337    1.0000 N.pl3   1  LIG1        0.0000
     12 C12         0.1233   -0.9691    2.1015 C.2     1  LIG1        0.0000
     13 N13        -0.3859   -2.1052    1.6765 N.2     1  LIG1        0.0000
     14 N14        -0.3783   -2.1016    0.3520 N.2     1  LIG1        0.0000
     15 C15         0.1270   -0.9763   -0.0968 C.2     1  LIG1        0.0000
     16 H           3.5019   -2.7777   -1.3746 H       1  LIG1        0.0000
     17 H           5.8097    0.5272    2.0801 H       1  LIG1        0.0000
     18 H           4.4881    0.3405    3.0209 H       1  LIG1        0.0000
     19 H           4.9040    2.3619    1.0165 H       1  LIG1        0.0000
     20 H           4.6625    2.6142    2.6117 H       1  LIG1        0.0000
     21 H           2.4712    2.4863    2.4323 H       1  LIG1        0.0000
     22 H           2.8014    3.0015    0.9183 H       1  LIG1        0.0000
     23 H           0.2474   -0.6952    3.0552 H       1  LIG1        0.0000
     24 H           0.2502   -0.7151   -1.0542 H       1  LIG1        0.0000
@<TRIPOS>BOND
     1     1     2    2
     2     2     3    1
     3     3     4    2
     4     4     5    1
     5     5     1    1
     6     4     6    1
     7     6     7    1
     8     7     8    1
     9     8     9    1
    10     9     3    1
    11     9    10    2
    12    10    11    1
    13    11    12    1
    14    12    13    2
    15    13    14    1
    16    14    15    2
    17    15    11    1
    18     1    16    1
    19     6    17    1
    20     6    18    1
    21     7    19    1
    22     7    20    1
    23     8    21    1
    24     8    22    1
    25    12    23    1
    26    15    24    1
