@<TRIPOS>MOLECULE
*****
 24 26 0 0 0
SMALL
USER_CHARGES

@<TRIPOS>ATOM
      1 C1          3.4779   -2.2493   -0.2898 C.2     1  LIG1        0.0000
      2 N2          2.5587   -1.3815    0.0700 N.2     1  LIG1        0.0000
      3 C3          3.0036   -0.1604    0.5292 C.2     1  LIG1        0.0000
      4 C4          4.3538    0.0003    0.5550 C.2     1  LIG1        0.0000
      5 S5          4.9704   -1.4688   -0.0361 S.3     1  LIG1        0.0000
      6 C6          5.1952    1.1905    0.9909 C.3     1  LIG1        0.0000
      7 C7          4.3332    2.4292    0.8131 C.3     1  LIG1        0.0000
      8 C8          2.9918    2.2403    1.5055 C.3     1  LIG1        0.0000
      9 C9          2.2714    1.0000    1.0000 C.2     1  LIG1        0.0000
     10 N10         1.0000    1.0000    1.0000 N.2     1  LIG1        0.0000
     11 N11         0.4507   -0.2337    1.0000 N.pl3   1  LIG1        0.0000
     12 C12        -0.3798   -0.7451    0.0461 C.2     1  LIG1        0.0000
     13 N13        -0.6897   -1.9700    0.4126 N.2     1  LIG1        0.0000
     14 N14        -0.0865   -2.2316    1.5624 N.2     1  LIG1        0.0000
     15 C15         0.6172   -1.1946    1.9530 C.2     1  LIG1        0.0000
     16 H           3.3316   -3.1746   -0.6395 H       1  LIG1        0.0000
     17 H           6.0156    1.2580    0.4231 H       1  LIG1        0.0000
     18 H           5.4608    1.0911    1.9499 H       1  LIG1        0.0000
     19 H           4.1817    2.5888   -0.1624 H       1  LIG1        0.0000
     20 H           4.8021    3.2177    1.2110 H       1  LIG1        0.0000
     21 H           3.1445    2.1486    2.4895 H       1  LIG1        0.0000
     22 H           2.4202    3.0418    1.3301 H       1  LIG1        0.0000
     23 H          -0.6947   -0.2757   -0.7789 H       1  LIG1        0.0000
     24 H           1.1670   -1.1233    2.7853 H       1  LIG1        0.0000
@<TRIPOS>BOND
     1     1     2    2
     2     2     3    1
     3     3     4    2
     4     4     5    1
     5     5     1    1
     6     4     6    1
     7     6     7    1
     8     7     8    1
     9     8     9    1
    10     9     3    1
    11     9    10    2
    12    10    11    1
    13    11    12    1
    14    12    13    2
    15    13    14    1
    16    14    15    2
    17    15    11    1
    18     1    16    1
    19     6    17    1
    20     6    18    1
    21     7    19    1
    22     7    20    1
    23     8    21    1
    24     8    22    1
    25    12    23    1
    26    15    24    1
