@<TRIPOS>MOLECULE
*****
 24 26 0 0 0
SMALL
USER_CHARGES

@<TRIPOS>ATOM
      1 C1          3.4903   -2.0412   -0.7221 C.2     1  LIG1        0.0000
      2 N2          2.5688   -1.2230   -0.2655 N.2     1  LIG1        0.0000
      3 C3          2.9988   -0.0908    0.3862 C.2     1  LIG1        0.0000
      4 C4          4.3479    0.0405    0.4834 C.2     1  LIG1        0.0000
      5 S5          4.9780   -1.3340   -0.2931 S.3     1  LIG1        0.0000
      6 C6          5.1708    1.1459    1.1277 C.3     1  LIG1        0.0000
      7 C7          4.3178    1.7247    2.2440 C.3     1  LIG1        0.0000
      8 C8          2.9860    2.1680    1.6591 C.3     1  LIG1        0.0000
      9 C9          2.2698    1.0000    1.0000 C.2     1  LIG1        0.0000
     10 N10         1.0000    1.0000    1.0000 N.2     1  LIG1        0.0000
     11 N11         0.4507   -0.2337    1.0000 N.pl3   1  LIG1        0.0000
     12 C12        -0.3798   -0.7451    0.0461 C.2     1  LIG1        0.0000
     13 N13        -0.6897   -1.9700    0.4126 N.2     1  LIG1        0.0000
     14 N14        -0.0865   -2.2316    1.5624 N.2     1  LIG1        0.0000
     15 C15         0.6172   -1.1946    1.9530 C.2     1  LIG1        0.0000
     16 H           3.3476   -2.8983   -1.2172 H       1  LIG1        0.0000
     17 H           5.3855    1.8536    0.4547 H       1  LIG1        0.0000
     18 H           6.0200    0.7718    1.5005 H       1  LIG1        0.0000
     19 H           4.7844    2.5096    2.6518 H       1  LIG1        0.0000
     20 H           4.1626    1.0283    2.9447 H       1  LIG1        0.0000
     21 H           2.4117    2.5335    2.3916 H       1  LIG1        0.0000
     22 H           3.1488    2.8802    0.9763 H       1  LIG1        0.0000
     23 H          -0.6947   -0.2757   -0.7789 H       1  LIG1        0.0000
     24 H           1.1670   -1.1233    2.7853 H       1  LIG1        0.0000
@<TRIPOS>BOND
     1     1     2    2
     2     2     3    1
     3     3     4    2
     4     4     5    1
     5     5     1    1
     6     4     6    1
     7     6     7    1
     8     7     8    1
     9     8     9    1
    10     9     3    1
    11     9    10    2
    12    10    11    1
    13    11    12    1
    14    12    13    2
    15    13    14    1
    16    14    15    2
    17    15    11    1
    18     1    16    1
    19     6    17    1
    20     6    18    1
    21     7    19    1
    22     7    20    1
    23     8    21    1
    24     8    22    1
    25    12    23    1
    26    15    24    1
