@<TRIPOS>MOLECULE
*****
 24 26 0 0 0
SMALL
USER_CHARGES

@<TRIPOS>ATOM
      1 C1          3.2296   -2.4667    0.1428 C.2     1  LIG1        0.0000
      2 N2          2.4046   -1.4873    0.4141 N.2     1  LIG1        0.0000
      3 C3          2.9308   -0.2454    0.6744 C.2     1  LIG1        0.0000
      4 C4          4.2855   -0.1492    0.6294 C.2     1  LIG1        0.0000
      5 S5          4.7648   -1.7332    0.2383 S.3     1  LIG1        0.0000
      6 C6          5.1820    1.0580    0.8680 C.3     1  LIG1        0.0000
      7 C7          4.4486    1.9424    1.8635 C.3     1  LIG1        0.0000
      8 C8          3.0614    2.2581    1.3238 C.3     1  LIG1        0.0000
      9 C9          2.2690    1.0000    1.0000 C.2     1  LIG1        0.0000
     10 N10         1.0000    1.0000    1.0000 N.2     1  LIG1        0.0000
     11 N11         0.4507   -0.2337    1.0000 N.pl3   1  LIG1        0.0000
     12 C12         0.1233   -0.9691    2.1015 C.2     1  LIG1        0.0000
     13 N13        -0.3859   -2.1052    1.6765 N.2     1  LIG1        0.0000
     14 N14        -0.3783   -2.1016    0.3520 N.2     1  LIG1        0.0000
     15 C15         0.1270   -0.9763   -0.0968 C.2     1  LIG1        0.0000
     16 H           3.0110   -3.4191   -0.0699 H       1  LIG1        0.0000
     17 H           5.3333    1.5519    0.0117 H       1  LIG1        0.0000
     18 H           6.0614    0.7674    1.2450 H       1  LIG1        0.0000
     19 H           4.9582    2.7928    1.9945 H       1  LIG1        0.0000
     20 H           4.3666    1.4649    2.7383 H       1  LIG1        0.0000
     21 H           2.5612    2.7856    2.0105 H       1  LIG1        0.0000
     22 H           3.1566    2.8019    0.4900 H       1  LIG1        0.0000
     23 H           0.2474   -0.6952    3.0552 H       1  LIG1        0.0000
     24 H           0.2502   -0.7151   -1.0542 H       1  LIG1        0.0000
@<TRIPOS>BOND
     1     1     2    2
     2     2     3    1
     3     3     4    2
     4     4     5    1
     5     5     1    1
     6     4     6    1
     7     6     7    1
     8     7     8    1
     9     8     9    1
    10     9     3    1
    11     9    10    2
    12    10    11    1
    13    11    12    1
    14    12    13    2
    15    13    14    1
    16    14    15    2
    17    15    11    1
    18     1    16    1
    19     6    17    1
    20     6    18    1
    21     7    19    1
    22     7    20    1
    23     8    21    1
    24     8    22    1
    25    12    23    1
    26    15    24    1
